flip-flop-d-clr-test.cir has models; not updating.

Circuit: KiCad schematic 

Doing analysis at TEMP = 27.000000 and TNOM = 27.000000


Initial Transient Solution
--------------------------

Node                                   Voltage
----                                   -------
flipflopdclrvcc                              5
din                                          5
clkin                                        0
clrin                                        5
flipflopdclrflipflopdclrnor2a        0.0957263
flipflopdclrflipflopdclrnor1a        0.0883254
flipflopdclrflipflopdclrnor1aorb        0.713425
flipflopdclrflipflopdclrnor3a          4.01192
flipflopdclrflipflopdclrnor2aorb       0.0478632
flipflopdclrflipflopdclrnor4a          0.10477
flipflopdclrflipflopdclrnor3aorborc        0.712375
flipflopdclrflipflopdclrnor4aorb        0.715966
flipflopdclrq                        0.0625643
flipflopdclrflipflopdclrnor5aorborc        0.729107
flipflopdclrnq                         4.61174
flipflopdclrflipflopdclrnor6aorb        0.083667
v4#branch                         -0.000427089
v3#branch                          7.60238e-05
v2#branch                         -0.000428403
v1#branch                            -0.021025


No. of Data Rows : 2248
                                KiCad schematic 
                                Transient Analysis  Fri Jan 18 10:02:22  2019
--------------------------------------------------------------------------------
Index   time            v(din)          v(clkin)        v(clrin)        
--------------------------------------------------------------------------------
0	0.000000e+00	5.000000e+00	0.000000e+00	5.000000e+00	
1	1.000000e-11	5.000000e+00	0.000000e+00	5.000000e+00	
2	2.000000e-11	5.000000e+00	0.000000e+00	5.000000e+00	
3	4.000000e-11	5.000000e+00	0.000000e+00	5.000000e+00	
4	8.000000e-11	5.000000e+00	0.000000e+00	5.000000e+00	
5	1.600000e-10	5.000000e+00	0.000000e+00	5.000000e+00	
6	3.200000e-10	5.000000e+00	0.000000e+00	5.000000e+00	
7	6.400000e-10	5.000000e+00	0.000000e+00	5.000000e+00	
8	1.280000e-09	5.000000e+00	0.000000e+00	5.000000e+00	
9	2.000000e-09	5.000000e+00	0.000000e+00	5.000000e+00	
10	2.100000e-09	5.000000e+00	2.500000e-01	5.000000e+00	
11	2.300000e-09	5.000000e+00	7.500000e-01	5.000000e+00	
12	2.700000e-09	5.000000e+00	1.750000e+00	5.000000e+00	
13	3.500000e-09	5.000000e+00	3.750000e+00	5.000000e+00	
14	4.000000e-09	5.000000e+00	5.000000e+00	5.000000e+00	
15	4.100000e-09	5.000000e+00	5.000000e+00	5.000000e+00	
16	4.300000e-09	5.000000e+00	5.000000e+00	5.000000e+00	
17	4.700000e-09	5.000000e+00	5.000000e+00	5.000000e+00	
18	5.500000e-09	5.000000e+00	5.000000e+00	5.000000e+00	
19	6.500000e-09	5.000000e+00	5.000000e+00	5.000000e+00	
20	7.500000e-09	5.000000e+00	5.000000e+00	5.000000e+00	
21	8.500000e-09	5.000000e+00	5.000000e+00	5.000000e+00	
22	9.500000e-09	5.000000e+00	5.000000e+00	5.000000e+00	
23	1.050000e-08	5.000000e+00	5.000000e+00	5.000000e+00	
24	1.150000e-08	5.000000e+00	5.000000e+00	5.000000e+00	
25	1.250000e-08	5.000000e+00	5.000000e+00	5.000000e+00	
26	1.350000e-08	5.000000e+00	5.000000e+00	5.000000e+00	
27	1.450000e-08	5.000000e+00	5.000000e+00	5.000000e+00	
28	1.550000e-08	5.000000e+00	5.000000e+00	5.000000e+00	
29	1.650000e-08	5.000000e+00	5.000000e+00	5.000000e+00	
30	1.750000e-08	5.000000e+00	5.000000e+00	5.000000e+00	
31	1.850000e-08	5.000000e+00	5.000000e+00	5.000000e+00	
32	1.950000e-08	5.000000e+00	5.000000e+00	5.000000e+00	
33	2.050000e-08	5.000000e+00	5.000000e+00	5.000000e+00	
34	2.150000e-08	5.000000e+00	5.000000e+00	5.000000e+00	
35	2.250000e-08	5.000000e+00	5.000000e+00	5.000000e+00	
36	2.350000e-08	5.000000e+00	5.000000e+00	5.000000e+00	
37	2.450000e-08	5.000000e+00	5.000000e+00	5.000000e+00	
38	2.550000e-08	5.000000e+00	5.000000e+00	5.000000e+00	
39	2.650000e-08	5.000000e+00	5.000000e+00	5.000000e+00	
40	2.750000e-08	5.000000e+00	5.000000e+00	5.000000e+00	
41	2.850000e-08	5.000000e+00	5.000000e+00	5.000000e+00	
42	2.950000e-08	5.000000e+00	5.000000e+00	5.000000e+00	
43	3.050000e-08	5.000000e+00	5.000000e+00	5.000000e+00	
44	3.150000e-08	5.000000e+00	5.000000e+00	5.000000e+00	
45	3.250000e-08	5.000000e+00	5.000000e+00	5.000000e+00	
46	3.350000e-08	5.000000e+00	5.000000e+00	5.000000e+00	
47	3.450000e-08	5.000000e+00	5.000000e+00	5.000000e+00	
48	3.550000e-08	5.000000e+00	5.000000e+00	5.000000e+00	
49	3.650000e-08	5.000000e+00	5.000000e+00	5.000000e+00	
50	3.750000e-08	5.000000e+00	5.000000e+00	5.000000e+00	
51	3.850000e-08	5.000000e+00	5.000000e+00	5.000000e+00	
52	3.950000e-08	5.000000e+00	5.000000e+00	5.000000e+00	
53	4.050000e-08	5.000000e+00	5.000000e+00	5.000000e+00	
54	4.150000e-08	5.000000e+00	5.000000e+00	5.000000e+00	

Index   time            v(din)          v(clkin)        v(clrin)        
--------------------------------------------------------------------------------
55	4.250000e-08	5.000000e+00	5.000000e+00	5.000000e+00	
56	4.350000e-08	5.000000e+00	5.000000e+00	5.000000e+00	
57	4.450000e-08	5.000000e+00	5.000000e+00	5.000000e+00	
58	4.550000e-08	5.000000e+00	5.000000e+00	5.000000e+00	
59	4.650000e-08	5.000000e+00	5.000000e+00	5.000000e+00	
60	4.750000e-08	5.000000e+00	5.000000e+00	5.000000e+00	
61	4.850000e-08	5.000000e+00	5.000000e+00	5.000000e+00	
62	4.950000e-08	5.000000e+00	5.000000e+00	5.000000e+00	
63	5.050000e-08	5.000000e+00	5.000000e+00	5.000000e+00	
64	5.150000e-08	5.000000e+00	5.000000e+00	5.000000e+00	
65	5.250000e-08	5.000000e+00	5.000000e+00	5.000000e+00	
66	5.350000e-08	5.000000e+00	5.000000e+00	5.000000e+00	
67	5.400000e-08	5.000000e+00	5.000000e+00	5.000000e+00	
68	5.410000e-08	5.000000e+00	4.750000e+00	5.000000e+00	
69	5.430000e-08	5.000000e+00	4.250000e+00	5.000000e+00	
70	5.470000e-08	5.000000e+00	3.250000e+00	5.000000e+00	
71	5.550000e-08	5.000000e+00	1.250000e+00	5.000000e+00	
72	5.600000e-08	5.000000e+00	0.000000e+00	5.000000e+00	
73	5.610000e-08	5.000000e+00	0.000000e+00	5.000000e+00	
74	5.630000e-08	5.000000e+00	0.000000e+00	5.000000e+00	
75	5.670000e-08	5.000000e+00	0.000000e+00	5.000000e+00	
76	5.750000e-08	5.000000e+00	0.000000e+00	5.000000e+00	
77	5.850000e-08	5.000000e+00	0.000000e+00	5.000000e+00	
78	5.950000e-08	5.000000e+00	0.000000e+00	5.000000e+00	
79	6.050000e-08	5.000000e+00	0.000000e+00	5.000000e+00	
80	6.150000e-08	5.000000e+00	0.000000e+00	5.000000e+00	
81	6.250000e-08	5.000000e+00	0.000000e+00	5.000000e+00	
82	6.350000e-08	5.000000e+00	0.000000e+00	5.000000e+00	
83	6.450000e-08	5.000000e+00	0.000000e+00	5.000000e+00	
84	6.550000e-08	5.000000e+00	0.000000e+00	5.000000e+00	
85	6.650000e-08	5.000000e+00	0.000000e+00	5.000000e+00	
86	6.750000e-08	5.000000e+00	0.000000e+00	5.000000e+00	
87	6.850000e-08	5.000000e+00	0.000000e+00	5.000000e+00	
88	6.950000e-08	5.000000e+00	0.000000e+00	5.000000e+00	
89	7.050000e-08	5.000000e+00	0.000000e+00	5.000000e+00	
90	7.150000e-08	5.000000e+00	0.000000e+00	5.000000e+00	
91	7.250000e-08	5.000000e+00	0.000000e+00	5.000000e+00	
92	7.350000e-08	5.000000e+00	0.000000e+00	5.000000e+00	
93	7.450000e-08	5.000000e+00	0.000000e+00	5.000000e+00	
94	7.550000e-08	5.000000e+00	0.000000e+00	5.000000e+00	
95	7.650000e-08	5.000000e+00	0.000000e+00	5.000000e+00	
96	7.750000e-08	5.000000e+00	0.000000e+00	5.000000e+00	
97	7.850000e-08	5.000000e+00	0.000000e+00	5.000000e+00	
98	7.950000e-08	5.000000e+00	0.000000e+00	5.000000e+00	
99	8.050000e-08	5.000000e+00	0.000000e+00	5.000000e+00	
100	8.150000e-08	5.000000e+00	0.000000e+00	5.000000e+00	
101	8.250000e-08	5.000000e+00	0.000000e+00	5.000000e+00	
102	8.350000e-08	5.000000e+00	0.000000e+00	5.000000e+00	
103	8.450000e-08	5.000000e+00	0.000000e+00	5.000000e+00	
104	8.550000e-08	5.000000e+00	0.000000e+00	5.000000e+00	
105	8.650000e-08	5.000000e+00	0.000000e+00	5.000000e+00	
106	8.750000e-08	5.000000e+00	0.000000e+00	5.000000e+00	
107	8.850000e-08	5.000000e+00	0.000000e+00	5.000000e+00	
108	8.950000e-08	5.000000e+00	0.000000e+00	5.000000e+00	
109	9.050000e-08	5.000000e+00	0.000000e+00	5.000000e+00	
110	9.150000e-08	5.000000e+00	0.000000e+00	5.000000e+00	
111	9.250000e-08	5.000000e+00	0.000000e+00	5.000000e+00	
112	9.350000e-08	5.000000e+00	0.000000e+00	5.000000e+00	

Index   time            v(din)          v(clkin)        v(clrin)        
--------------------------------------------------------------------------------
113	9.450000e-08	5.000000e+00	0.000000e+00	5.000000e+00	
114	9.550000e-08	5.000000e+00	0.000000e+00	5.000000e+00	
115	9.650000e-08	5.000000e+00	0.000000e+00	5.000000e+00	
116	9.750000e-08	5.000000e+00	0.000000e+00	5.000000e+00	
117	9.850000e-08	5.000000e+00	0.000000e+00	5.000000e+00	
118	9.950000e-08	5.000000e+00	0.000000e+00	5.000000e+00	
119	1.005000e-07	5.000000e+00	0.000000e+00	5.000000e+00	
120	1.015000e-07	5.000000e+00	0.000000e+00	5.000000e+00	
121	1.020000e-07	5.000000e+00	0.000000e+00	5.000000e+00	
122	1.021000e-07	5.000000e+00	2.500000e-01	5.000000e+00	
123	1.023000e-07	5.000000e+00	7.500000e-01	5.000000e+00	
124	1.027000e-07	5.000000e+00	1.750000e+00	5.000000e+00	
125	1.035000e-07	5.000000e+00	3.750000e+00	5.000000e+00	
126	1.040000e-07	5.000000e+00	5.000000e+00	5.000000e+00	
127	1.041000e-07	5.000000e+00	5.000000e+00	5.000000e+00	
128	1.043000e-07	5.000000e+00	5.000000e+00	5.000000e+00	
129	1.047000e-07	5.000000e+00	5.000000e+00	5.000000e+00	
130	1.055000e-07	5.000000e+00	5.000000e+00	5.000000e+00	
131	1.065000e-07	5.000000e+00	5.000000e+00	5.000000e+00	
132	1.075000e-07	5.000000e+00	5.000000e+00	5.000000e+00	
133	1.085000e-07	5.000000e+00	5.000000e+00	5.000000e+00	
134	1.095000e-07	5.000000e+00	5.000000e+00	5.000000e+00	
135	1.105000e-07	5.000000e+00	5.000000e+00	5.000000e+00	
136	1.115000e-07	5.000000e+00	5.000000e+00	5.000000e+00	
137	1.125000e-07	5.000000e+00	5.000000e+00	5.000000e+00	
138	1.135000e-07	5.000000e+00	5.000000e+00	5.000000e+00	
139	1.145000e-07	5.000000e+00	5.000000e+00	5.000000e+00	
140	1.155000e-07	5.000000e+00	5.000000e+00	5.000000e+00	
141	1.165000e-07	5.000000e+00	5.000000e+00	5.000000e+00	
142	1.175000e-07	5.000000e+00	5.000000e+00	5.000000e+00	
143	1.185000e-07	5.000000e+00	5.000000e+00	5.000000e+00	
144	1.195000e-07	5.000000e+00	5.000000e+00	5.000000e+00	
145	1.205000e-07	5.000000e+00	5.000000e+00	5.000000e+00	
146	1.215000e-07	5.000000e+00	5.000000e+00	5.000000e+00	
147	1.225000e-07	5.000000e+00	5.000000e+00	5.000000e+00	
148	1.235000e-07	5.000000e+00	5.000000e+00	5.000000e+00	
149	1.245000e-07	5.000000e+00	5.000000e+00	5.000000e+00	
150	1.255000e-07	5.000000e+00	5.000000e+00	5.000000e+00	
151	1.265000e-07	5.000000e+00	5.000000e+00	5.000000e+00	
152	1.275000e-07	5.000000e+00	5.000000e+00	5.000000e+00	
153	1.285000e-07	5.000000e+00	5.000000e+00	5.000000e+00	
154	1.295000e-07	5.000000e+00	5.000000e+00	5.000000e+00	
155	1.305000e-07	5.000000e+00	5.000000e+00	5.000000e+00	
156	1.315000e-07	5.000000e+00	5.000000e+00	5.000000e+00	
157	1.325000e-07	5.000000e+00	5.000000e+00	5.000000e+00	
158	1.335000e-07	5.000000e+00	5.000000e+00	5.000000e+00	
159	1.345000e-07	5.000000e+00	5.000000e+00	5.000000e+00	
160	1.355000e-07	5.000000e+00	5.000000e+00	5.000000e+00	
161	1.365000e-07	5.000000e+00	5.000000e+00	5.000000e+00	
162	1.375000e-07	5.000000e+00	5.000000e+00	5.000000e+00	
163	1.385000e-07	5.000000e+00	5.000000e+00	5.000000e+00	
164	1.395000e-07	5.000000e+00	5.000000e+00	5.000000e+00	
165	1.405000e-07	5.000000e+00	5.000000e+00	5.000000e+00	
166	1.415000e-07	5.000000e+00	5.000000e+00	5.000000e+00	
167	1.425000e-07	5.000000e+00	5.000000e+00	5.000000e+00	
168	1.435000e-07	5.000000e+00	5.000000e+00	5.000000e+00	
169	1.445000e-07	5.000000e+00	5.000000e+00	5.000000e+00	
170	1.455000e-07	5.000000e+00	5.000000e+00	5.000000e+00	

Index   time            v(din)          v(clkin)        v(clrin)        
--------------------------------------------------------------------------------
171	1.465000e-07	5.000000e+00	5.000000e+00	5.000000e+00	
172	1.475000e-07	5.000000e+00	5.000000e+00	5.000000e+00	
173	1.485000e-07	5.000000e+00	5.000000e+00	5.000000e+00	
174	1.495000e-07	5.000000e+00	5.000000e+00	5.000000e+00	
175	1.505000e-07	5.000000e+00	5.000000e+00	5.000000e+00	
176	1.515000e-07	5.000000e+00	5.000000e+00	5.000000e+00	
177	1.525000e-07	5.000000e+00	5.000000e+00	5.000000e+00	
178	1.535000e-07	5.000000e+00	5.000000e+00	5.000000e+00	
179	1.540000e-07	5.000000e+00	5.000000e+00	5.000000e+00	
180	1.541000e-07	5.000000e+00	4.750000e+00	5.000000e+00	
181	1.543000e-07	5.000000e+00	4.250000e+00	5.000000e+00	
182	1.547000e-07	5.000000e+00	3.250000e+00	5.000000e+00	
183	1.555000e-07	5.000000e+00	1.250000e+00	5.000000e+00	
184	1.560000e-07	5.000000e+00	0.000000e+00	5.000000e+00	
185	1.561000e-07	5.000000e+00	0.000000e+00	5.000000e+00	
186	1.563000e-07	5.000000e+00	0.000000e+00	5.000000e+00	
187	1.567000e-07	5.000000e+00	0.000000e+00	5.000000e+00	
188	1.575000e-07	5.000000e+00	0.000000e+00	5.000000e+00	
189	1.585000e-07	5.000000e+00	0.000000e+00	5.000000e+00	
190	1.595000e-07	5.000000e+00	0.000000e+00	5.000000e+00	
191	1.605000e-07	5.000000e+00	0.000000e+00	5.000000e+00	
192	1.615000e-07	5.000000e+00	0.000000e+00	5.000000e+00	
193	1.625000e-07	5.000000e+00	0.000000e+00	5.000000e+00	
194	1.635000e-07	5.000000e+00	0.000000e+00	5.000000e+00	
195	1.645000e-07	5.000000e+00	0.000000e+00	5.000000e+00	
196	1.655000e-07	5.000000e+00	0.000000e+00	5.000000e+00	
197	1.665000e-07	5.000000e+00	0.000000e+00	5.000000e+00	
198	1.675000e-07	5.000000e+00	0.000000e+00	5.000000e+00	
199	1.685000e-07	5.000000e+00	0.000000e+00	5.000000e+00	
200	1.695000e-07	5.000000e+00	0.000000e+00	5.000000e+00	
201	1.705000e-07	5.000000e+00	0.000000e+00	5.000000e+00	
202	1.715000e-07	5.000000e+00	0.000000e+00	5.000000e+00	
203	1.725000e-07	5.000000e+00	0.000000e+00	5.000000e+00	
204	1.735000e-07	5.000000e+00	0.000000e+00	5.000000e+00	
205	1.745000e-07	5.000000e+00	0.000000e+00	5.000000e+00	
206	1.755000e-07	5.000000e+00	0.000000e+00	5.000000e+00	
207	1.765000e-07	5.000000e+00	0.000000e+00	5.000000e+00	
208	1.775000e-07	5.000000e+00	0.000000e+00	5.000000e+00	
209	1.785000e-07	5.000000e+00	0.000000e+00	5.000000e+00	
210	1.795000e-07	5.000000e+00	0.000000e+00	5.000000e+00	
211	1.805000e-07	5.000000e+00	0.000000e+00	5.000000e+00	
212	1.815000e-07	5.000000e+00	0.000000e+00	5.000000e+00	
213	1.825000e-07	5.000000e+00	0.000000e+00	5.000000e+00	
214	1.835000e-07	5.000000e+00	0.000000e+00	5.000000e+00	
215	1.845000e-07	5.000000e+00	0.000000e+00	5.000000e+00	
216	1.855000e-07	5.000000e+00	0.000000e+00	5.000000e+00	
217	1.865000e-07	5.000000e+00	0.000000e+00	5.000000e+00	
218	1.875000e-07	5.000000e+00	0.000000e+00	5.000000e+00	
219	1.885000e-07	5.000000e+00	0.000000e+00	5.000000e+00	
220	1.895000e-07	5.000000e+00	0.000000e+00	5.000000e+00	
221	1.905000e-07	5.000000e+00	0.000000e+00	5.000000e+00	
222	1.915000e-07	5.000000e+00	0.000000e+00	5.000000e+00	
223	1.925000e-07	5.000000e+00	0.000000e+00	5.000000e+00	
224	1.935000e-07	5.000000e+00	0.000000e+00	5.000000e+00	
225	1.945000e-07	5.000000e+00	0.000000e+00	5.000000e+00	
226	1.955000e-07	5.000000e+00	0.000000e+00	5.000000e+00	
227	1.965000e-07	5.000000e+00	0.000000e+00	5.000000e+00	
228	1.975000e-07	5.000000e+00	0.000000e+00	5.000000e+00	

Index   time            v(din)          v(clkin)        v(clrin)        
--------------------------------------------------------------------------------
229	1.985000e-07	5.000000e+00	0.000000e+00	5.000000e+00	
230	1.995000e-07	5.000000e+00	0.000000e+00	5.000000e+00	
231	2.005000e-07	5.000000e+00	0.000000e+00	5.000000e+00	
232	2.015000e-07	5.000000e+00	0.000000e+00	5.000000e+00	
233	2.020000e-07	5.000000e+00	0.000000e+00	5.000000e+00	
234	2.021000e-07	5.000000e+00	2.500000e-01	5.000000e+00	
235	2.023000e-07	5.000000e+00	7.500000e-01	5.000000e+00	
236	2.027000e-07	5.000000e+00	1.750000e+00	5.000000e+00	
237	2.035000e-07	5.000000e+00	3.750000e+00	5.000000e+00	
238	2.040000e-07	5.000000e+00	5.000000e+00	5.000000e+00	
239	2.041000e-07	5.000000e+00	5.000000e+00	5.000000e+00	
240	2.043000e-07	5.000000e+00	5.000000e+00	5.000000e+00	
241	2.047000e-07	5.000000e+00	5.000000e+00	5.000000e+00	
242	2.055000e-07	5.000000e+00	5.000000e+00	5.000000e+00	
243	2.065000e-07	5.000000e+00	5.000000e+00	5.000000e+00	
244	2.075000e-07	5.000000e+00	5.000000e+00	5.000000e+00	
245	2.085000e-07	5.000000e+00	5.000000e+00	5.000000e+00	
246	2.095000e-07	5.000000e+00	5.000000e+00	5.000000e+00	
247	2.105000e-07	5.000000e+00	5.000000e+00	5.000000e+00	
248	2.115000e-07	5.000000e+00	5.000000e+00	5.000000e+00	
249	2.125000e-07	5.000000e+00	5.000000e+00	5.000000e+00	
250	2.135000e-07	5.000000e+00	5.000000e+00	5.000000e+00	
251	2.145000e-07	5.000000e+00	5.000000e+00	5.000000e+00	
252	2.155000e-07	5.000000e+00	5.000000e+00	5.000000e+00	
253	2.165000e-07	5.000000e+00	5.000000e+00	5.000000e+00	
254	2.175000e-07	5.000000e+00	5.000000e+00	5.000000e+00	
255	2.185000e-07	5.000000e+00	5.000000e+00	5.000000e+00	
256	2.195000e-07	5.000000e+00	5.000000e+00	5.000000e+00	
257	2.205000e-07	5.000000e+00	5.000000e+00	5.000000e+00	
258	2.215000e-07	5.000000e+00	5.000000e+00	5.000000e+00	
259	2.225000e-07	5.000000e+00	5.000000e+00	5.000000e+00	
260	2.235000e-07	5.000000e+00	5.000000e+00	5.000000e+00	
261	2.245000e-07	5.000000e+00	5.000000e+00	5.000000e+00	
262	2.255000e-07	5.000000e+00	5.000000e+00	5.000000e+00	
263	2.265000e-07	5.000000e+00	5.000000e+00	5.000000e+00	
264	2.275000e-07	5.000000e+00	5.000000e+00	5.000000e+00	
265	2.285000e-07	5.000000e+00	5.000000e+00	5.000000e+00	
266	2.295000e-07	5.000000e+00	5.000000e+00	5.000000e+00	
267	2.305000e-07	5.000000e+00	5.000000e+00	5.000000e+00	
268	2.315000e-07	5.000000e+00	5.000000e+00	5.000000e+00	
269	2.325000e-07	5.000000e+00	5.000000e+00	5.000000e+00	
270	2.335000e-07	5.000000e+00	5.000000e+00	5.000000e+00	
271	2.345000e-07	5.000000e+00	5.000000e+00	5.000000e+00	
272	2.355000e-07	5.000000e+00	5.000000e+00	5.000000e+00	
273	2.365000e-07	5.000000e+00	5.000000e+00	5.000000e+00	
274	2.375000e-07	5.000000e+00	5.000000e+00	5.000000e+00	
275	2.385000e-07	5.000000e+00	5.000000e+00	5.000000e+00	
276	2.395000e-07	5.000000e+00	5.000000e+00	5.000000e+00	
277	2.405000e-07	5.000000e+00	5.000000e+00	5.000000e+00	
278	2.415000e-07	5.000000e+00	5.000000e+00	5.000000e+00	
279	2.425000e-07	5.000000e+00	5.000000e+00	5.000000e+00	
280	2.435000e-07	5.000000e+00	5.000000e+00	5.000000e+00	
281	2.445000e-07	5.000000e+00	5.000000e+00	5.000000e+00	
282	2.455000e-07	5.000000e+00	5.000000e+00	5.000000e+00	
283	2.465000e-07	5.000000e+00	5.000000e+00	5.000000e+00	
284	2.475000e-07	5.000000e+00	5.000000e+00	5.000000e+00	
285	2.485000e-07	5.000000e+00	5.000000e+00	5.000000e+00	
286	2.495000e-07	5.000000e+00	5.000000e+00	5.000000e+00	

Index   time            v(din)          v(clkin)        v(clrin)        
--------------------------------------------------------------------------------
287	2.505000e-07	5.000000e+00	5.000000e+00	5.000000e+00	
288	2.515000e-07	5.000000e+00	5.000000e+00	5.000000e+00	
289	2.525000e-07	5.000000e+00	5.000000e+00	5.000000e+00	
290	2.535000e-07	5.000000e+00	5.000000e+00	5.000000e+00	
291	2.540000e-07	5.000000e+00	5.000000e+00	5.000000e+00	
292	2.541000e-07	5.000000e+00	4.750000e+00	5.000000e+00	
293	2.543000e-07	5.000000e+00	4.250000e+00	5.000000e+00	
294	2.547000e-07	5.000000e+00	3.250000e+00	5.000000e+00	
295	2.555000e-07	5.000000e+00	1.250000e+00	5.000000e+00	
296	2.560000e-07	5.000000e+00	0.000000e+00	5.000000e+00	
297	2.561000e-07	5.000000e+00	0.000000e+00	5.000000e+00	
298	2.563000e-07	5.000000e+00	0.000000e+00	5.000000e+00	
299	2.567000e-07	5.000000e+00	0.000000e+00	5.000000e+00	
300	2.575000e-07	5.000000e+00	0.000000e+00	5.000000e+00	
301	2.585000e-07	5.000000e+00	0.000000e+00	5.000000e+00	
302	2.595000e-07	5.000000e+00	0.000000e+00	5.000000e+00	
303	2.605000e-07	5.000000e+00	0.000000e+00	5.000000e+00	
304	2.615000e-07	5.000000e+00	0.000000e+00	5.000000e+00	
305	2.625000e-07	5.000000e+00	0.000000e+00	5.000000e+00	
306	2.635000e-07	5.000000e+00	0.000000e+00	5.000000e+00	
307	2.645000e-07	5.000000e+00	0.000000e+00	5.000000e+00	
308	2.655000e-07	5.000000e+00	0.000000e+00	5.000000e+00	
309	2.665000e-07	5.000000e+00	0.000000e+00	5.000000e+00	
310	2.675000e-07	5.000000e+00	0.000000e+00	5.000000e+00	
311	2.685000e-07	5.000000e+00	0.000000e+00	5.000000e+00	
312	2.695000e-07	5.000000e+00	0.000000e+00	5.000000e+00	
313	2.705000e-07	5.000000e+00	0.000000e+00	5.000000e+00	
314	2.715000e-07	5.000000e+00	0.000000e+00	5.000000e+00	
315	2.725000e-07	5.000000e+00	0.000000e+00	5.000000e+00	
316	2.735000e-07	5.000000e+00	0.000000e+00	5.000000e+00	
317	2.745000e-07	5.000000e+00	0.000000e+00	5.000000e+00	
318	2.755000e-07	5.000000e+00	0.000000e+00	5.000000e+00	
319	2.765000e-07	5.000000e+00	0.000000e+00	5.000000e+00	
320	2.775000e-07	5.000000e+00	0.000000e+00	5.000000e+00	
321	2.785000e-07	5.000000e+00	0.000000e+00	5.000000e+00	
322	2.795000e-07	5.000000e+00	0.000000e+00	5.000000e+00	
323	2.805000e-07	5.000000e+00	0.000000e+00	5.000000e+00	
324	2.815000e-07	5.000000e+00	0.000000e+00	5.000000e+00	
325	2.825000e-07	5.000000e+00	0.000000e+00	5.000000e+00	
326	2.835000e-07	5.000000e+00	0.000000e+00	5.000000e+00	
327	2.845000e-07	5.000000e+00	0.000000e+00	5.000000e+00	
328	2.855000e-07	5.000000e+00	0.000000e+00	5.000000e+00	
329	2.865000e-07	5.000000e+00	0.000000e+00	5.000000e+00	
330	2.875000e-07	5.000000e+00	0.000000e+00	5.000000e+00	
331	2.885000e-07	5.000000e+00	0.000000e+00	5.000000e+00	
332	2.895000e-07	5.000000e+00	0.000000e+00	5.000000e+00	
333	2.905000e-07	5.000000e+00	0.000000e+00	5.000000e+00	
334	2.915000e-07	5.000000e+00	0.000000e+00	5.000000e+00	
335	2.925000e-07	5.000000e+00	0.000000e+00	5.000000e+00	
336	2.935000e-07	5.000000e+00	0.000000e+00	5.000000e+00	
337	2.945000e-07	5.000000e+00	0.000000e+00	5.000000e+00	
338	2.955000e-07	5.000000e+00	0.000000e+00	5.000000e+00	
339	2.965000e-07	5.000000e+00	0.000000e+00	5.000000e+00	
340	2.975000e-07	5.000000e+00	0.000000e+00	5.000000e+00	
341	2.985000e-07	5.000000e+00	0.000000e+00	5.000000e+00	
342	2.995000e-07	5.000000e+00	0.000000e+00	5.000000e+00	
343	3.005000e-07	5.000000e+00	0.000000e+00	5.000000e+00	
344	3.015000e-07	5.000000e+00	0.000000e+00	5.000000e+00	

Index   time            v(din)          v(clkin)        v(clrin)        
--------------------------------------------------------------------------------
345	3.020000e-07	5.000000e+00	0.000000e+00	5.000000e+00	
346	3.021000e-07	5.000000e+00	2.500000e-01	5.000000e+00	
347	3.023000e-07	5.000000e+00	7.500000e-01	5.000000e+00	
348	3.027000e-07	5.000000e+00	1.750000e+00	5.000000e+00	
349	3.035000e-07	5.000000e+00	3.750000e+00	5.000000e+00	
350	3.040000e-07	5.000000e+00	5.000000e+00	5.000000e+00	
351	3.041000e-07	5.000000e+00	5.000000e+00	5.000000e+00	
352	3.043000e-07	5.000000e+00	5.000000e+00	5.000000e+00	
353	3.047000e-07	5.000000e+00	5.000000e+00	5.000000e+00	
354	3.055000e-07	5.000000e+00	5.000000e+00	5.000000e+00	
355	3.065000e-07	5.000000e+00	5.000000e+00	5.000000e+00	
356	3.075000e-07	5.000000e+00	5.000000e+00	5.000000e+00	
357	3.085000e-07	5.000000e+00	5.000000e+00	5.000000e+00	
358	3.095000e-07	5.000000e+00	5.000000e+00	5.000000e+00	
359	3.105000e-07	5.000000e+00	5.000000e+00	5.000000e+00	
360	3.115000e-07	5.000000e+00	5.000000e+00	5.000000e+00	
361	3.125000e-07	5.000000e+00	5.000000e+00	5.000000e+00	
362	3.135000e-07	5.000000e+00	5.000000e+00	5.000000e+00	
363	3.145000e-07	5.000000e+00	5.000000e+00	5.000000e+00	
364	3.155000e-07	5.000000e+00	5.000000e+00	5.000000e+00	
365	3.165000e-07	5.000000e+00	5.000000e+00	5.000000e+00	
366	3.175000e-07	5.000000e+00	5.000000e+00	5.000000e+00	
367	3.185000e-07	5.000000e+00	5.000000e+00	5.000000e+00	
368	3.195000e-07	5.000000e+00	5.000000e+00	5.000000e+00	
369	3.205000e-07	5.000000e+00	5.000000e+00	5.000000e+00	
370	3.215000e-07	5.000000e+00	5.000000e+00	5.000000e+00	
371	3.225000e-07	5.000000e+00	5.000000e+00	5.000000e+00	
372	3.235000e-07	5.000000e+00	5.000000e+00	5.000000e+00	
373	3.245000e-07	5.000000e+00	5.000000e+00	5.000000e+00	
374	3.255000e-07	5.000000e+00	5.000000e+00	5.000000e+00	
375	3.265000e-07	5.000000e+00	5.000000e+00	5.000000e+00	
376	3.275000e-07	5.000000e+00	5.000000e+00	5.000000e+00	
377	3.285000e-07	5.000000e+00	5.000000e+00	5.000000e+00	
378	3.295000e-07	5.000000e+00	5.000000e+00	5.000000e+00	
379	3.305000e-07	5.000000e+00	5.000000e+00	5.000000e+00	
380	3.315000e-07	5.000000e+00	5.000000e+00	5.000000e+00	
381	3.325000e-07	5.000000e+00	5.000000e+00	5.000000e+00	
382	3.335000e-07	5.000000e+00	5.000000e+00	5.000000e+00	
383	3.345000e-07	5.000000e+00	5.000000e+00	5.000000e+00	
384	3.355000e-07	5.000000e+00	5.000000e+00	5.000000e+00	
385	3.365000e-07	5.000000e+00	5.000000e+00	5.000000e+00	
386	3.375000e-07	5.000000e+00	5.000000e+00	5.000000e+00	
387	3.385000e-07	5.000000e+00	5.000000e+00	5.000000e+00	
388	3.395000e-07	5.000000e+00	5.000000e+00	5.000000e+00	
389	3.405000e-07	5.000000e+00	5.000000e+00	5.000000e+00	
390	3.415000e-07	5.000000e+00	5.000000e+00	5.000000e+00	
391	3.425000e-07	5.000000e+00	5.000000e+00	5.000000e+00	
392	3.435000e-07	5.000000e+00	5.000000e+00	5.000000e+00	
393	3.445000e-07	5.000000e+00	5.000000e+00	5.000000e+00	
394	3.455000e-07	5.000000e+00	5.000000e+00	5.000000e+00	
395	3.465000e-07	5.000000e+00	5.000000e+00	5.000000e+00	
396	3.475000e-07	5.000000e+00	5.000000e+00	5.000000e+00	
397	3.485000e-07	5.000000e+00	5.000000e+00	5.000000e+00	
398	3.495000e-07	5.000000e+00	5.000000e+00	5.000000e+00	
399	3.505000e-07	5.000000e+00	5.000000e+00	5.000000e+00	
400	3.515000e-07	5.000000e+00	5.000000e+00	5.000000e+00	
401	3.525000e-07	5.000000e+00	5.000000e+00	5.000000e+00	
402	3.535000e-07	5.000000e+00	5.000000e+00	5.000000e+00	

Index   time            v(din)          v(clkin)        v(clrin)        
--------------------------------------------------------------------------------
403	3.540000e-07	5.000000e+00	5.000000e+00	5.000000e+00	
404	3.541000e-07	5.000000e+00	4.750000e+00	5.000000e+00	
405	3.543000e-07	5.000000e+00	4.250000e+00	5.000000e+00	
406	3.547000e-07	5.000000e+00	3.250000e+00	5.000000e+00	
407	3.555000e-07	5.000000e+00	1.250000e+00	5.000000e+00	
408	3.560000e-07	5.000000e+00	5.506706e-14	5.000000e+00	
409	3.561000e-07	5.000000e+00	0.000000e+00	5.000000e+00	
410	3.563000e-07	5.000000e+00	0.000000e+00	5.000000e+00	
411	3.567000e-07	5.000000e+00	0.000000e+00	5.000000e+00	
412	3.575000e-07	5.000000e+00	0.000000e+00	5.000000e+00	
413	3.585000e-07	5.000000e+00	0.000000e+00	5.000000e+00	
414	3.595000e-07	5.000000e+00	0.000000e+00	5.000000e+00	
415	3.605000e-07	5.000000e+00	0.000000e+00	5.000000e+00	
416	3.615000e-07	5.000000e+00	0.000000e+00	5.000000e+00	
417	3.625000e-07	5.000000e+00	0.000000e+00	5.000000e+00	
418	3.635000e-07	5.000000e+00	0.000000e+00	5.000000e+00	
419	3.645000e-07	5.000000e+00	0.000000e+00	5.000000e+00	
420	3.655000e-07	5.000000e+00	0.000000e+00	5.000000e+00	
421	3.665000e-07	5.000000e+00	0.000000e+00	5.000000e+00	
422	3.675000e-07	5.000000e+00	0.000000e+00	5.000000e+00	
423	3.685000e-07	5.000000e+00	0.000000e+00	5.000000e+00	
424	3.695000e-07	5.000000e+00	0.000000e+00	5.000000e+00	
425	3.705000e-07	5.000000e+00	0.000000e+00	5.000000e+00	
426	3.715000e-07	5.000000e+00	0.000000e+00	5.000000e+00	
427	3.725000e-07	5.000000e+00	0.000000e+00	5.000000e+00	
428	3.735000e-07	5.000000e+00	0.000000e+00	5.000000e+00	
429	3.745000e-07	5.000000e+00	0.000000e+00	5.000000e+00	
430	3.755000e-07	5.000000e+00	0.000000e+00	5.000000e+00	
431	3.765000e-07	5.000000e+00	0.000000e+00	5.000000e+00	
432	3.775000e-07	5.000000e+00	0.000000e+00	5.000000e+00	
433	3.785000e-07	5.000000e+00	0.000000e+00	5.000000e+00	
434	3.795000e-07	5.000000e+00	0.000000e+00	5.000000e+00	
435	3.805000e-07	5.000000e+00	0.000000e+00	5.000000e+00	
436	3.815000e-07	5.000000e+00	0.000000e+00	5.000000e+00	
437	3.825000e-07	5.000000e+00	0.000000e+00	5.000000e+00	
438	3.835000e-07	5.000000e+00	0.000000e+00	5.000000e+00	
439	3.845000e-07	5.000000e+00	0.000000e+00	5.000000e+00	
440	3.855000e-07	5.000000e+00	0.000000e+00	5.000000e+00	
441	3.865000e-07	5.000000e+00	0.000000e+00	5.000000e+00	
442	3.875000e-07	5.000000e+00	0.000000e+00	5.000000e+00	
443	3.885000e-07	5.000000e+00	0.000000e+00	5.000000e+00	
444	3.895000e-07	5.000000e+00	0.000000e+00	5.000000e+00	
445	3.905000e-07	5.000000e+00	0.000000e+00	5.000000e+00	
446	3.915000e-07	5.000000e+00	0.000000e+00	5.000000e+00	
447	3.925000e-07	5.000000e+00	0.000000e+00	5.000000e+00	
448	3.935000e-07	5.000000e+00	0.000000e+00	5.000000e+00	
449	3.945000e-07	5.000000e+00	0.000000e+00	5.000000e+00	
450	3.955000e-07	5.000000e+00	0.000000e+00	5.000000e+00	
451	3.965000e-07	5.000000e+00	0.000000e+00	5.000000e+00	
452	3.975000e-07	5.000000e+00	0.000000e+00	5.000000e+00	
453	3.985000e-07	5.000000e+00	0.000000e+00	5.000000e+00	
454	3.995000e-07	5.000000e+00	0.000000e+00	5.000000e+00	
455	4.005000e-07	5.000000e+00	0.000000e+00	5.000000e+00	
456	4.015000e-07	5.000000e+00	0.000000e+00	5.000000e+00	
457	4.020000e-07	5.000000e+00	0.000000e+00	5.000000e+00	
458	4.021000e-07	5.000000e+00	2.500000e-01	5.000000e+00	
459	4.023000e-07	5.000000e+00	7.500000e-01	5.000000e+00	
460	4.027000e-07	5.000000e+00	1.750000e+00	5.000000e+00	

Index   time            v(din)          v(clkin)        v(clrin)        
--------------------------------------------------------------------------------
461	4.035000e-07	5.000000e+00	3.750000e+00	5.000000e+00	
462	4.040000e-07	5.000000e+00	5.000000e+00	5.000000e+00	
463	4.041000e-07	5.000000e+00	5.000000e+00	5.000000e+00	
464	4.043000e-07	5.000000e+00	5.000000e+00	5.000000e+00	
465	4.047000e-07	5.000000e+00	5.000000e+00	5.000000e+00	
466	4.055000e-07	5.000000e+00	5.000000e+00	5.000000e+00	
467	4.065000e-07	5.000000e+00	5.000000e+00	5.000000e+00	
468	4.075000e-07	5.000000e+00	5.000000e+00	5.000000e+00	
469	4.085000e-07	5.000000e+00	5.000000e+00	5.000000e+00	
470	4.095000e-07	5.000000e+00	5.000000e+00	5.000000e+00	
471	4.105000e-07	5.000000e+00	5.000000e+00	5.000000e+00	
472	4.115000e-07	5.000000e+00	5.000000e+00	5.000000e+00	
473	4.125000e-07	5.000000e+00	5.000000e+00	5.000000e+00	
474	4.135000e-07	5.000000e+00	5.000000e+00	5.000000e+00	
475	4.145000e-07	5.000000e+00	5.000000e+00	5.000000e+00	
476	4.155000e-07	5.000000e+00	5.000000e+00	5.000000e+00	
477	4.165000e-07	5.000000e+00	5.000000e+00	5.000000e+00	
478	4.175000e-07	5.000000e+00	5.000000e+00	5.000000e+00	
479	4.185000e-07	5.000000e+00	5.000000e+00	5.000000e+00	
480	4.195000e-07	5.000000e+00	5.000000e+00	5.000000e+00	
481	4.205000e-07	5.000000e+00	5.000000e+00	5.000000e+00	
482	4.215000e-07	5.000000e+00	5.000000e+00	5.000000e+00	
483	4.225000e-07	5.000000e+00	5.000000e+00	5.000000e+00	
484	4.235000e-07	5.000000e+00	5.000000e+00	5.000000e+00	
485	4.245000e-07	5.000000e+00	5.000000e+00	5.000000e+00	
486	4.255000e-07	5.000000e+00	5.000000e+00	5.000000e+00	
487	4.265000e-07	5.000000e+00	5.000000e+00	5.000000e+00	
488	4.275000e-07	5.000000e+00	5.000000e+00	5.000000e+00	
489	4.285000e-07	5.000000e+00	5.000000e+00	5.000000e+00	
490	4.295000e-07	5.000000e+00	5.000000e+00	5.000000e+00	
491	4.305000e-07	5.000000e+00	5.000000e+00	5.000000e+00	
492	4.315000e-07	5.000000e+00	5.000000e+00	5.000000e+00	
493	4.325000e-07	5.000000e+00	5.000000e+00	5.000000e+00	
494	4.335000e-07	5.000000e+00	5.000000e+00	5.000000e+00	
495	4.345000e-07	5.000000e+00	5.000000e+00	5.000000e+00	
496	4.355000e-07	5.000000e+00	5.000000e+00	5.000000e+00	
497	4.365000e-07	5.000000e+00	5.000000e+00	5.000000e+00	
498	4.375000e-07	5.000000e+00	5.000000e+00	5.000000e+00	
499	4.385000e-07	5.000000e+00	5.000000e+00	5.000000e+00	
500	4.395000e-07	5.000000e+00	5.000000e+00	5.000000e+00	
501	4.405000e-07	5.000000e+00	5.000000e+00	5.000000e+00	
502	4.415000e-07	5.000000e+00	5.000000e+00	5.000000e+00	
503	4.425000e-07	5.000000e+00	5.000000e+00	5.000000e+00	
504	4.435000e-07	5.000000e+00	5.000000e+00	5.000000e+00	
505	4.445000e-07	5.000000e+00	5.000000e+00	5.000000e+00	
506	4.455000e-07	5.000000e+00	5.000000e+00	5.000000e+00	
507	4.465000e-07	5.000000e+00	5.000000e+00	5.000000e+00	
508	4.475000e-07	5.000000e+00	5.000000e+00	5.000000e+00	
509	4.485000e-07	5.000000e+00	5.000000e+00	5.000000e+00	
510	4.495000e-07	5.000000e+00	5.000000e+00	5.000000e+00	
511	4.505000e-07	5.000000e+00	5.000000e+00	5.000000e+00	
512	4.515000e-07	5.000000e+00	5.000000e+00	5.000000e+00	
513	4.525000e-07	5.000000e+00	5.000000e+00	5.000000e+00	
514	4.535000e-07	5.000000e+00	5.000000e+00	5.000000e+00	
515	4.540000e-07	5.000000e+00	5.000000e+00	5.000000e+00	
516	4.541000e-07	5.000000e+00	4.750000e+00	5.000000e+00	
517	4.543000e-07	5.000000e+00	4.250000e+00	5.000000e+00	
518	4.547000e-07	5.000000e+00	3.250000e+00	5.000000e+00	

Index   time            v(din)          v(clkin)        v(clrin)        
--------------------------------------------------------------------------------
519	4.555000e-07	5.000000e+00	1.250000e+00	5.000000e+00	
520	4.560000e-07	5.000000e+00	5.506706e-14	5.000000e+00	
521	4.561000e-07	5.000000e+00	0.000000e+00	5.000000e+00	
522	4.563000e-07	5.000000e+00	0.000000e+00	5.000000e+00	
523	4.567000e-07	5.000000e+00	0.000000e+00	5.000000e+00	
524	4.575000e-07	5.000000e+00	0.000000e+00	5.000000e+00	
525	4.585000e-07	5.000000e+00	0.000000e+00	5.000000e+00	
526	4.595000e-07	5.000000e+00	0.000000e+00	5.000000e+00	
527	4.605000e-07	5.000000e+00	0.000000e+00	5.000000e+00	
528	4.615000e-07	5.000000e+00	0.000000e+00	5.000000e+00	
529	4.625000e-07	5.000000e+00	0.000000e+00	5.000000e+00	
530	4.635000e-07	5.000000e+00	0.000000e+00	5.000000e+00	
531	4.645000e-07	5.000000e+00	0.000000e+00	5.000000e+00	
532	4.655000e-07	5.000000e+00	0.000000e+00	5.000000e+00	
533	4.665000e-07	5.000000e+00	0.000000e+00	5.000000e+00	
534	4.675000e-07	5.000000e+00	0.000000e+00	5.000000e+00	
535	4.685000e-07	5.000000e+00	0.000000e+00	5.000000e+00	
536	4.695000e-07	5.000000e+00	0.000000e+00	5.000000e+00	
537	4.705000e-07	5.000000e+00	0.000000e+00	5.000000e+00	
538	4.715000e-07	5.000000e+00	0.000000e+00	5.000000e+00	
539	4.725000e-07	5.000000e+00	0.000000e+00	5.000000e+00	
540	4.735000e-07	5.000000e+00	0.000000e+00	5.000000e+00	
541	4.745000e-07	5.000000e+00	0.000000e+00	5.000000e+00	
542	4.755000e-07	5.000000e+00	0.000000e+00	5.000000e+00	
543	4.765000e-07	5.000000e+00	0.000000e+00	5.000000e+00	
544	4.775000e-07	5.000000e+00	0.000000e+00	5.000000e+00	
545	4.785000e-07	5.000000e+00	0.000000e+00	5.000000e+00	
546	4.795000e-07	5.000000e+00	0.000000e+00	5.000000e+00	
547	4.805000e-07	5.000000e+00	0.000000e+00	5.000000e+00	
548	4.815000e-07	5.000000e+00	0.000000e+00	5.000000e+00	
549	4.825000e-07	5.000000e+00	0.000000e+00	5.000000e+00	
550	4.835000e-07	5.000000e+00	0.000000e+00	5.000000e+00	
551	4.845000e-07	5.000000e+00	0.000000e+00	5.000000e+00	
552	4.855000e-07	5.000000e+00	0.000000e+00	5.000000e+00	
553	4.865000e-07	5.000000e+00	0.000000e+00	5.000000e+00	
554	4.875000e-07	5.000000e+00	0.000000e+00	5.000000e+00	
555	4.885000e-07	5.000000e+00	0.000000e+00	5.000000e+00	
556	4.895000e-07	5.000000e+00	0.000000e+00	5.000000e+00	
557	4.905000e-07	5.000000e+00	0.000000e+00	5.000000e+00	
558	4.915000e-07	5.000000e+00	0.000000e+00	5.000000e+00	
559	4.925000e-07	5.000000e+00	0.000000e+00	5.000000e+00	
560	4.935000e-07	5.000000e+00	0.000000e+00	5.000000e+00	
561	4.945000e-07	5.000000e+00	0.000000e+00	5.000000e+00	
562	4.955000e-07	5.000000e+00	0.000000e+00	5.000000e+00	
563	4.965000e-07	5.000000e+00	0.000000e+00	5.000000e+00	
564	4.975000e-07	5.000000e+00	0.000000e+00	5.000000e+00	
565	4.985000e-07	5.000000e+00	0.000000e+00	5.000000e+00	
566	4.995000e-07	5.000000e+00	0.000000e+00	5.000000e+00	
567	5.005000e-07	5.000000e+00	0.000000e+00	5.000000e+00	
568	5.015000e-07	5.000000e+00	0.000000e+00	5.000000e+00	
569	5.020000e-07	5.000000e+00	0.000000e+00	5.000000e+00	
570	5.021000e-07	5.000000e+00	2.500000e-01	5.000000e+00	
571	5.023000e-07	5.000000e+00	7.500000e-01	5.000000e+00	
572	5.027000e-07	5.000000e+00	1.750000e+00	5.000000e+00	
573	5.035000e-07	5.000000e+00	3.750000e+00	5.000000e+00	
574	5.040000e-07	5.000000e+00	5.000000e+00	5.000000e+00	
575	5.041000e-07	5.000000e+00	5.000000e+00	5.000000e+00	
576	5.043000e-07	5.000000e+00	5.000000e+00	5.000000e+00	

Index   time            v(din)          v(clkin)        v(clrin)        
--------------------------------------------------------------------------------
577	5.047000e-07	5.000000e+00	5.000000e+00	5.000000e+00	
578	5.055000e-07	5.000000e+00	5.000000e+00	5.000000e+00	
579	5.065000e-07	5.000000e+00	5.000000e+00	5.000000e+00	
580	5.075000e-07	5.000000e+00	5.000000e+00	5.000000e+00	
581	5.085000e-07	5.000000e+00	5.000000e+00	5.000000e+00	
582	5.095000e-07	5.000000e+00	5.000000e+00	5.000000e+00	
583	5.105000e-07	5.000000e+00	5.000000e+00	5.000000e+00	
584	5.115000e-07	5.000000e+00	5.000000e+00	5.000000e+00	
585	5.125000e-07	5.000000e+00	5.000000e+00	5.000000e+00	
586	5.135000e-07	5.000000e+00	5.000000e+00	5.000000e+00	
587	5.145000e-07	5.000000e+00	5.000000e+00	5.000000e+00	
588	5.155000e-07	5.000000e+00	5.000000e+00	5.000000e+00	
589	5.165000e-07	5.000000e+00	5.000000e+00	5.000000e+00	
590	5.175000e-07	5.000000e+00	5.000000e+00	5.000000e+00	
591	5.185000e-07	5.000000e+00	5.000000e+00	5.000000e+00	
592	5.195000e-07	5.000000e+00	5.000000e+00	5.000000e+00	
593	5.205000e-07	5.000000e+00	5.000000e+00	5.000000e+00	
594	5.215000e-07	5.000000e+00	5.000000e+00	5.000000e+00	
595	5.225000e-07	5.000000e+00	5.000000e+00	5.000000e+00	
596	5.235000e-07	5.000000e+00	5.000000e+00	5.000000e+00	
597	5.245000e-07	5.000000e+00	5.000000e+00	5.000000e+00	
598	5.255000e-07	5.000000e+00	5.000000e+00	5.000000e+00	
599	5.265000e-07	5.000000e+00	5.000000e+00	5.000000e+00	
600	5.275000e-07	5.000000e+00	5.000000e+00	5.000000e+00	
601	5.285000e-07	5.000000e+00	5.000000e+00	5.000000e+00	
602	5.295000e-07	5.000000e+00	5.000000e+00	5.000000e+00	
603	5.305000e-07	5.000000e+00	5.000000e+00	5.000000e+00	
604	5.315000e-07	5.000000e+00	5.000000e+00	5.000000e+00	
605	5.325000e-07	5.000000e+00	5.000000e+00	5.000000e+00	
606	5.335000e-07	5.000000e+00	5.000000e+00	5.000000e+00	
607	5.345000e-07	5.000000e+00	5.000000e+00	5.000000e+00	
608	5.355000e-07	5.000000e+00	5.000000e+00	5.000000e+00	
609	5.365000e-07	5.000000e+00	5.000000e+00	5.000000e+00	
610	5.375000e-07	5.000000e+00	5.000000e+00	5.000000e+00	
611	5.385000e-07	5.000000e+00	5.000000e+00	5.000000e+00	
612	5.395000e-07	5.000000e+00	5.000000e+00	5.000000e+00	
613	5.405000e-07	5.000000e+00	5.000000e+00	5.000000e+00	
614	5.415000e-07	5.000000e+00	5.000000e+00	5.000000e+00	
615	5.425000e-07	5.000000e+00	5.000000e+00	5.000000e+00	
616	5.435000e-07	5.000000e+00	5.000000e+00	5.000000e+00	
617	5.445000e-07	5.000000e+00	5.000000e+00	5.000000e+00	
618	5.455000e-07	5.000000e+00	5.000000e+00	5.000000e+00	
619	5.465000e-07	5.000000e+00	5.000000e+00	5.000000e+00	
620	5.475000e-07	5.000000e+00	5.000000e+00	5.000000e+00	
621	5.485000e-07	5.000000e+00	5.000000e+00	5.000000e+00	
622	5.495000e-07	5.000000e+00	5.000000e+00	5.000000e+00	
623	5.505000e-07	5.000000e+00	5.000000e+00	5.000000e+00	
624	5.515000e-07	5.000000e+00	5.000000e+00	5.000000e+00	
625	5.525000e-07	5.000000e+00	5.000000e+00	5.000000e+00	
626	5.535000e-07	5.000000e+00	5.000000e+00	5.000000e+00	
627	5.540000e-07	5.000000e+00	5.000000e+00	5.000000e+00	
628	5.541000e-07	5.000000e+00	4.750000e+00	5.000000e+00	
629	5.543000e-07	5.000000e+00	4.250000e+00	5.000000e+00	
630	5.547000e-07	5.000000e+00	3.250000e+00	5.000000e+00	
631	5.555000e-07	5.000000e+00	1.250000e+00	5.000000e+00	
632	5.560000e-07	5.000000e+00	0.000000e+00	5.000000e+00	
633	5.561000e-07	5.000000e+00	0.000000e+00	5.000000e+00	
634	5.563000e-07	5.000000e+00	0.000000e+00	5.000000e+00	

Index   time            v(din)          v(clkin)        v(clrin)        
--------------------------------------------------------------------------------
635	5.567000e-07	5.000000e+00	0.000000e+00	5.000000e+00	
636	5.575000e-07	5.000000e+00	0.000000e+00	5.000000e+00	
637	5.585000e-07	5.000000e+00	0.000000e+00	5.000000e+00	
638	5.595000e-07	5.000000e+00	0.000000e+00	5.000000e+00	
639	5.605000e-07	5.000000e+00	0.000000e+00	5.000000e+00	
640	5.615000e-07	5.000000e+00	0.000000e+00	5.000000e+00	
641	5.625000e-07	5.000000e+00	0.000000e+00	5.000000e+00	
642	5.635000e-07	5.000000e+00	0.000000e+00	5.000000e+00	
643	5.645000e-07	5.000000e+00	0.000000e+00	5.000000e+00	
644	5.655000e-07	5.000000e+00	0.000000e+00	5.000000e+00	
645	5.665000e-07	5.000000e+00	0.000000e+00	5.000000e+00	
646	5.675000e-07	5.000000e+00	0.000000e+00	5.000000e+00	
647	5.685000e-07	5.000000e+00	0.000000e+00	5.000000e+00	
648	5.695000e-07	5.000000e+00	0.000000e+00	5.000000e+00	
649	5.705000e-07	5.000000e+00	0.000000e+00	5.000000e+00	
650	5.715000e-07	5.000000e+00	0.000000e+00	5.000000e+00	
651	5.725000e-07	5.000000e+00	0.000000e+00	5.000000e+00	
652	5.735000e-07	5.000000e+00	0.000000e+00	5.000000e+00	
653	5.745000e-07	5.000000e+00	0.000000e+00	5.000000e+00	
654	5.755000e-07	5.000000e+00	0.000000e+00	5.000000e+00	
655	5.765000e-07	5.000000e+00	0.000000e+00	5.000000e+00	
656	5.775000e-07	5.000000e+00	0.000000e+00	5.000000e+00	
657	5.785000e-07	5.000000e+00	0.000000e+00	5.000000e+00	
658	5.795000e-07	5.000000e+00	0.000000e+00	5.000000e+00	
659	5.805000e-07	5.000000e+00	0.000000e+00	5.000000e+00	
660	5.815000e-07	5.000000e+00	0.000000e+00	5.000000e+00	
661	5.825000e-07	5.000000e+00	0.000000e+00	5.000000e+00	
662	5.835000e-07	5.000000e+00	0.000000e+00	5.000000e+00	
663	5.845000e-07	5.000000e+00	0.000000e+00	5.000000e+00	
664	5.855000e-07	5.000000e+00	0.000000e+00	5.000000e+00	
665	5.865000e-07	5.000000e+00	0.000000e+00	5.000000e+00	
666	5.875000e-07	5.000000e+00	0.000000e+00	5.000000e+00	
667	5.885000e-07	5.000000e+00	0.000000e+00	5.000000e+00	
668	5.895000e-07	5.000000e+00	0.000000e+00	5.000000e+00	
669	5.905000e-07	5.000000e+00	0.000000e+00	5.000000e+00	
670	5.915000e-07	5.000000e+00	0.000000e+00	5.000000e+00	
671	5.925000e-07	5.000000e+00	0.000000e+00	5.000000e+00	
672	5.935000e-07	5.000000e+00	0.000000e+00	5.000000e+00	
673	5.945000e-07	5.000000e+00	0.000000e+00	5.000000e+00	
674	5.955000e-07	5.000000e+00	0.000000e+00	5.000000e+00	
675	5.965000e-07	5.000000e+00	0.000000e+00	5.000000e+00	
676	5.975000e-07	5.000000e+00	0.000000e+00	5.000000e+00	
677	5.985000e-07	5.000000e+00	0.000000e+00	5.000000e+00	
678	5.995000e-07	5.000000e+00	0.000000e+00	5.000000e+00	
679	6.005000e-07	5.000000e+00	0.000000e+00	5.000000e+00	
680	6.015000e-07	5.000000e+00	0.000000e+00	5.000000e+00	
681	6.020000e-07	5.000000e+00	0.000000e+00	5.000000e+00	
682	6.021000e-07	5.000000e+00	2.500000e-01	5.000000e+00	
683	6.023000e-07	5.000000e+00	7.500000e-01	5.000000e+00	
684	6.027000e-07	5.000000e+00	1.750000e+00	5.000000e+00	
685	6.035000e-07	5.000000e+00	3.750000e+00	5.000000e+00	
686	6.040000e-07	5.000000e+00	5.000000e+00	5.000000e+00	
687	6.041000e-07	5.000000e+00	5.000000e+00	5.000000e+00	
688	6.043000e-07	5.000000e+00	5.000000e+00	5.000000e+00	
689	6.047000e-07	5.000000e+00	5.000000e+00	5.000000e+00	
690	6.055000e-07	5.000000e+00	5.000000e+00	5.000000e+00	
691	6.065000e-07	5.000000e+00	5.000000e+00	5.000000e+00	
692	6.075000e-07	5.000000e+00	5.000000e+00	5.000000e+00	

Index   time            v(din)          v(clkin)        v(clrin)        
--------------------------------------------------------------------------------
693	6.085000e-07	5.000000e+00	5.000000e+00	5.000000e+00	
694	6.095000e-07	5.000000e+00	5.000000e+00	5.000000e+00	
695	6.105000e-07	5.000000e+00	5.000000e+00	5.000000e+00	
696	6.115000e-07	5.000000e+00	5.000000e+00	5.000000e+00	
697	6.125000e-07	5.000000e+00	5.000000e+00	5.000000e+00	
698	6.135000e-07	5.000000e+00	5.000000e+00	5.000000e+00	
699	6.145000e-07	5.000000e+00	5.000000e+00	5.000000e+00	
700	6.155000e-07	5.000000e+00	5.000000e+00	5.000000e+00	
701	6.165000e-07	5.000000e+00	5.000000e+00	5.000000e+00	
702	6.175000e-07	5.000000e+00	5.000000e+00	5.000000e+00	
703	6.185000e-07	5.000000e+00	5.000000e+00	5.000000e+00	
704	6.195000e-07	5.000000e+00	5.000000e+00	5.000000e+00	
705	6.205000e-07	5.000000e+00	5.000000e+00	5.000000e+00	
706	6.215000e-07	5.000000e+00	5.000000e+00	5.000000e+00	
707	6.225000e-07	5.000000e+00	5.000000e+00	5.000000e+00	
708	6.235000e-07	5.000000e+00	5.000000e+00	5.000000e+00	
709	6.245000e-07	5.000000e+00	5.000000e+00	5.000000e+00	
710	6.255000e-07	5.000000e+00	5.000000e+00	5.000000e+00	
711	6.265000e-07	5.000000e+00	5.000000e+00	5.000000e+00	
712	6.275000e-07	5.000000e+00	5.000000e+00	5.000000e+00	
713	6.285000e-07	5.000000e+00	5.000000e+00	5.000000e+00	
714	6.295000e-07	5.000000e+00	5.000000e+00	5.000000e+00	
715	6.305000e-07	5.000000e+00	5.000000e+00	5.000000e+00	
716	6.315000e-07	5.000000e+00	5.000000e+00	5.000000e+00	
717	6.325000e-07	5.000000e+00	5.000000e+00	5.000000e+00	
718	6.335000e-07	5.000000e+00	5.000000e+00	5.000000e+00	
719	6.345000e-07	5.000000e+00	5.000000e+00	5.000000e+00	
720	6.355000e-07	5.000000e+00	5.000000e+00	5.000000e+00	
721	6.365000e-07	5.000000e+00	5.000000e+00	5.000000e+00	
722	6.375000e-07	5.000000e+00	5.000000e+00	5.000000e+00	
723	6.385000e-07	5.000000e+00	5.000000e+00	5.000000e+00	
724	6.395000e-07	5.000000e+00	5.000000e+00	5.000000e+00	
725	6.405000e-07	5.000000e+00	5.000000e+00	5.000000e+00	
726	6.415000e-07	5.000000e+00	5.000000e+00	5.000000e+00	
727	6.425000e-07	5.000000e+00	5.000000e+00	5.000000e+00	
728	6.435000e-07	5.000000e+00	5.000000e+00	5.000000e+00	
729	6.445000e-07	5.000000e+00	5.000000e+00	5.000000e+00	
730	6.455000e-07	5.000000e+00	5.000000e+00	5.000000e+00	
731	6.465000e-07	5.000000e+00	5.000000e+00	5.000000e+00	
732	6.475000e-07	5.000000e+00	5.000000e+00	5.000000e+00	
733	6.485000e-07	5.000000e+00	5.000000e+00	5.000000e+00	
734	6.495000e-07	5.000000e+00	5.000000e+00	5.000000e+00	
735	6.505000e-07	5.000000e+00	5.000000e+00	5.000000e+00	
736	6.515000e-07	5.000000e+00	5.000000e+00	5.000000e+00	
737	6.525000e-07	5.000000e+00	5.000000e+00	5.000000e+00	
738	6.535000e-07	5.000000e+00	5.000000e+00	5.000000e+00	
739	6.540000e-07	5.000000e+00	5.000000e+00	5.000000e+00	
740	6.541000e-07	5.000000e+00	4.750000e+00	5.000000e+00	
741	6.543000e-07	5.000000e+00	4.250000e+00	5.000000e+00	
742	6.547000e-07	5.000000e+00	3.250000e+00	5.000000e+00	
743	6.555000e-07	5.000000e+00	1.250000e+00	5.000000e+00	
744	6.560000e-07	5.000000e+00	0.000000e+00	5.000000e+00	
745	6.561000e-07	5.000000e+00	0.000000e+00	5.000000e+00	
746	6.563000e-07	5.000000e+00	0.000000e+00	5.000000e+00	
747	6.567000e-07	5.000000e+00	0.000000e+00	5.000000e+00	
748	6.575000e-07	5.000000e+00	0.000000e+00	5.000000e+00	
749	6.585000e-07	5.000000e+00	0.000000e+00	5.000000e+00	
750	6.595000e-07	5.000000e+00	0.000000e+00	5.000000e+00	

Index   time            v(din)          v(clkin)        v(clrin)        
--------------------------------------------------------------------------------
751	6.605000e-07	5.000000e+00	0.000000e+00	5.000000e+00	
752	6.615000e-07	5.000000e+00	0.000000e+00	5.000000e+00	
753	6.625000e-07	5.000000e+00	0.000000e+00	5.000000e+00	
754	6.635000e-07	5.000000e+00	0.000000e+00	5.000000e+00	
755	6.645000e-07	5.000000e+00	0.000000e+00	5.000000e+00	
756	6.655000e-07	5.000000e+00	0.000000e+00	5.000000e+00	
757	6.665000e-07	5.000000e+00	0.000000e+00	5.000000e+00	
758	6.675000e-07	5.000000e+00	0.000000e+00	5.000000e+00	
759	6.685000e-07	5.000000e+00	0.000000e+00	5.000000e+00	
760	6.695000e-07	5.000000e+00	0.000000e+00	5.000000e+00	
761	6.705000e-07	5.000000e+00	0.000000e+00	5.000000e+00	
762	6.715000e-07	5.000000e+00	0.000000e+00	5.000000e+00	
763	6.725000e-07	5.000000e+00	0.000000e+00	5.000000e+00	
764	6.735000e-07	5.000000e+00	0.000000e+00	5.000000e+00	
765	6.745000e-07	5.000000e+00	0.000000e+00	5.000000e+00	
766	6.755000e-07	5.000000e+00	0.000000e+00	5.000000e+00	
767	6.765000e-07	5.000000e+00	0.000000e+00	5.000000e+00	
768	6.775000e-07	5.000000e+00	0.000000e+00	5.000000e+00	
769	6.785000e-07	5.000000e+00	0.000000e+00	5.000000e+00	
770	6.795000e-07	5.000000e+00	0.000000e+00	5.000000e+00	
771	6.805000e-07	5.000000e+00	0.000000e+00	5.000000e+00	
772	6.815000e-07	5.000000e+00	0.000000e+00	5.000000e+00	
773	6.825000e-07	5.000000e+00	0.000000e+00	5.000000e+00	
774	6.835000e-07	5.000000e+00	0.000000e+00	5.000000e+00	
775	6.845000e-07	5.000000e+00	0.000000e+00	5.000000e+00	
776	6.855000e-07	5.000000e+00	0.000000e+00	5.000000e+00	
777	6.865000e-07	5.000000e+00	0.000000e+00	5.000000e+00	
778	6.875000e-07	5.000000e+00	0.000000e+00	5.000000e+00	
779	6.885000e-07	5.000000e+00	0.000000e+00	5.000000e+00	
780	6.895000e-07	5.000000e+00	0.000000e+00	5.000000e+00	
781	6.905000e-07	5.000000e+00	0.000000e+00	5.000000e+00	
782	6.915000e-07	5.000000e+00	0.000000e+00	5.000000e+00	
783	6.925000e-07	5.000000e+00	0.000000e+00	5.000000e+00	
784	6.935000e-07	5.000000e+00	0.000000e+00	5.000000e+00	
785	6.945000e-07	5.000000e+00	0.000000e+00	5.000000e+00	
786	6.955000e-07	5.000000e+00	0.000000e+00	5.000000e+00	
787	6.965000e-07	5.000000e+00	0.000000e+00	5.000000e+00	
788	6.975000e-07	5.000000e+00	0.000000e+00	5.000000e+00	
789	6.985000e-07	5.000000e+00	0.000000e+00	5.000000e+00	
790	6.995000e-07	5.000000e+00	0.000000e+00	5.000000e+00	
791	7.005000e-07	5.000000e+00	0.000000e+00	5.000000e+00	
792	7.015000e-07	5.000000e+00	0.000000e+00	5.000000e+00	
793	7.020000e-07	5.000000e+00	0.000000e+00	5.000000e+00	
794	7.021000e-07	5.000000e+00	2.500000e-01	5.000000e+00	
795	7.023000e-07	5.000000e+00	7.500000e-01	5.000000e+00	
796	7.027000e-07	5.000000e+00	1.750000e+00	5.000000e+00	
797	7.035000e-07	5.000000e+00	3.750000e+00	5.000000e+00	
798	7.040000e-07	5.000000e+00	5.000000e+00	5.000000e+00	
799	7.041000e-07	5.000000e+00	5.000000e+00	5.000000e+00	
800	7.043000e-07	5.000000e+00	5.000000e+00	5.000000e+00	
801	7.047000e-07	5.000000e+00	5.000000e+00	5.000000e+00	
802	7.055000e-07	5.000000e+00	5.000000e+00	5.000000e+00	
803	7.065000e-07	5.000000e+00	5.000000e+00	5.000000e+00	
804	7.075000e-07	5.000000e+00	5.000000e+00	5.000000e+00	
805	7.085000e-07	5.000000e+00	5.000000e+00	5.000000e+00	
806	7.095000e-07	5.000000e+00	5.000000e+00	5.000000e+00	
807	7.105000e-07	5.000000e+00	5.000000e+00	5.000000e+00	
808	7.115000e-07	5.000000e+00	5.000000e+00	5.000000e+00	

Index   time            v(din)          v(clkin)        v(clrin)        
--------------------------------------------------------------------------------
809	7.125000e-07	5.000000e+00	5.000000e+00	5.000000e+00	
810	7.135000e-07	5.000000e+00	5.000000e+00	5.000000e+00	
811	7.145000e-07	5.000000e+00	5.000000e+00	5.000000e+00	
812	7.155000e-07	5.000000e+00	5.000000e+00	5.000000e+00	
813	7.165000e-07	5.000000e+00	5.000000e+00	5.000000e+00	
814	7.175000e-07	5.000000e+00	5.000000e+00	5.000000e+00	
815	7.185000e-07	5.000000e+00	5.000000e+00	5.000000e+00	
816	7.195000e-07	5.000000e+00	5.000000e+00	5.000000e+00	
817	7.205000e-07	5.000000e+00	5.000000e+00	5.000000e+00	
818	7.215000e-07	5.000000e+00	5.000000e+00	5.000000e+00	
819	7.225000e-07	5.000000e+00	5.000000e+00	5.000000e+00	
820	7.235000e-07	5.000000e+00	5.000000e+00	5.000000e+00	
821	7.245000e-07	5.000000e+00	5.000000e+00	5.000000e+00	
822	7.255000e-07	5.000000e+00	5.000000e+00	5.000000e+00	
823	7.265000e-07	5.000000e+00	5.000000e+00	5.000000e+00	
824	7.275000e-07	5.000000e+00	5.000000e+00	5.000000e+00	
825	7.285000e-07	5.000000e+00	5.000000e+00	5.000000e+00	
826	7.295000e-07	5.000000e+00	5.000000e+00	5.000000e+00	
827	7.305000e-07	5.000000e+00	5.000000e+00	5.000000e+00	
828	7.315000e-07	5.000000e+00	5.000000e+00	5.000000e+00	
829	7.325000e-07	5.000000e+00	5.000000e+00	5.000000e+00	
830	7.335000e-07	5.000000e+00	5.000000e+00	5.000000e+00	
831	7.345000e-07	5.000000e+00	5.000000e+00	5.000000e+00	
832	7.355000e-07	5.000000e+00	5.000000e+00	5.000000e+00	
833	7.365000e-07	5.000000e+00	5.000000e+00	5.000000e+00	
834	7.375000e-07	5.000000e+00	5.000000e+00	5.000000e+00	
835	7.385000e-07	5.000000e+00	5.000000e+00	5.000000e+00	
836	7.395000e-07	5.000000e+00	5.000000e+00	5.000000e+00	
837	7.405000e-07	5.000000e+00	5.000000e+00	5.000000e+00	
838	7.415000e-07	5.000000e+00	5.000000e+00	5.000000e+00	
839	7.425000e-07	5.000000e+00	5.000000e+00	5.000000e+00	
840	7.435000e-07	5.000000e+00	5.000000e+00	5.000000e+00	
841	7.445000e-07	5.000000e+00	5.000000e+00	5.000000e+00	
842	7.455000e-07	5.000000e+00	5.000000e+00	5.000000e+00	
843	7.465000e-07	5.000000e+00	5.000000e+00	5.000000e+00	
844	7.475000e-07	5.000000e+00	5.000000e+00	5.000000e+00	
845	7.485000e-07	5.000000e+00	5.000000e+00	5.000000e+00	
846	7.495000e-07	5.000000e+00	5.000000e+00	5.000000e+00	
847	7.505000e-07	5.000000e+00	5.000000e+00	5.000000e+00	
848	7.515000e-07	5.000000e+00	5.000000e+00	5.000000e+00	
849	7.525000e-07	5.000000e+00	5.000000e+00	5.000000e+00	
850	7.535000e-07	5.000000e+00	5.000000e+00	5.000000e+00	
851	7.540000e-07	5.000000e+00	5.000000e+00	5.000000e+00	
852	7.541000e-07	5.000000e+00	4.750000e+00	5.000000e+00	
853	7.543000e-07	5.000000e+00	4.250000e+00	5.000000e+00	
854	7.547000e-07	5.000000e+00	3.250000e+00	5.000000e+00	
855	7.555000e-07	5.000000e+00	1.250000e+00	5.000000e+00	
856	7.560000e-07	5.000000e+00	0.000000e+00	5.000000e+00	
857	7.561000e-07	5.000000e+00	0.000000e+00	5.000000e+00	
858	7.563000e-07	5.000000e+00	0.000000e+00	5.000000e+00	
859	7.567000e-07	5.000000e+00	0.000000e+00	5.000000e+00	
860	7.575000e-07	5.000000e+00	0.000000e+00	5.000000e+00	
861	7.585000e-07	5.000000e+00	0.000000e+00	5.000000e+00	
862	7.595000e-07	5.000000e+00	0.000000e+00	5.000000e+00	
863	7.605000e-07	5.000000e+00	0.000000e+00	5.000000e+00	
864	7.615000e-07	5.000000e+00	0.000000e+00	5.000000e+00	
865	7.625000e-07	5.000000e+00	0.000000e+00	5.000000e+00	
866	7.635000e-07	5.000000e+00	0.000000e+00	5.000000e+00	

Index   time            v(din)          v(clkin)        v(clrin)        
--------------------------------------------------------------------------------
867	7.645000e-07	5.000000e+00	0.000000e+00	5.000000e+00	
868	7.655000e-07	5.000000e+00	0.000000e+00	5.000000e+00	
869	7.665000e-07	5.000000e+00	0.000000e+00	5.000000e+00	
870	7.675000e-07	5.000000e+00	0.000000e+00	5.000000e+00	
871	7.685000e-07	5.000000e+00	0.000000e+00	5.000000e+00	
872	7.695000e-07	5.000000e+00	0.000000e+00	5.000000e+00	
873	7.705000e-07	5.000000e+00	0.000000e+00	5.000000e+00	
874	7.715000e-07	5.000000e+00	0.000000e+00	5.000000e+00	
875	7.725000e-07	5.000000e+00	0.000000e+00	5.000000e+00	
876	7.735000e-07	5.000000e+00	0.000000e+00	5.000000e+00	
877	7.745000e-07	5.000000e+00	0.000000e+00	5.000000e+00	
878	7.755000e-07	5.000000e+00	0.000000e+00	5.000000e+00	
879	7.765000e-07	5.000000e+00	0.000000e+00	5.000000e+00	
880	7.775000e-07	5.000000e+00	0.000000e+00	5.000000e+00	
881	7.785000e-07	5.000000e+00	0.000000e+00	5.000000e+00	
882	7.795000e-07	5.000000e+00	0.000000e+00	5.000000e+00	
883	7.805000e-07	5.000000e+00	0.000000e+00	5.000000e+00	
884	7.815000e-07	5.000000e+00	0.000000e+00	5.000000e+00	
885	7.825000e-07	5.000000e+00	0.000000e+00	5.000000e+00	
886	7.835000e-07	5.000000e+00	0.000000e+00	5.000000e+00	
887	7.845000e-07	5.000000e+00	0.000000e+00	5.000000e+00	
888	7.855000e-07	5.000000e+00	0.000000e+00	5.000000e+00	
889	7.865000e-07	5.000000e+00	0.000000e+00	5.000000e+00	
890	7.875000e-07	5.000000e+00	0.000000e+00	5.000000e+00	
891	7.885000e-07	5.000000e+00	0.000000e+00	5.000000e+00	
892	7.895000e-07	5.000000e+00	0.000000e+00	5.000000e+00	
893	7.905000e-07	5.000000e+00	0.000000e+00	5.000000e+00	
894	7.915000e-07	5.000000e+00	0.000000e+00	5.000000e+00	
895	7.925000e-07	5.000000e+00	0.000000e+00	5.000000e+00	
896	7.935000e-07	5.000000e+00	0.000000e+00	5.000000e+00	
897	7.945000e-07	5.000000e+00	0.000000e+00	5.000000e+00	
898	7.955000e-07	5.000000e+00	0.000000e+00	5.000000e+00	
899	7.965000e-07	5.000000e+00	0.000000e+00	5.000000e+00	
900	7.975000e-07	5.000000e+00	0.000000e+00	5.000000e+00	
901	7.985000e-07	5.000000e+00	0.000000e+00	5.000000e+00	
902	7.995000e-07	5.000000e+00	0.000000e+00	5.000000e+00	
903	8.005000e-07	5.000000e+00	0.000000e+00	5.000000e+00	
904	8.015000e-07	5.000000e+00	0.000000e+00	5.000000e+00	
905	8.020000e-07	5.000000e+00	0.000000e+00	5.000000e+00	
906	8.021000e-07	5.000000e+00	2.500000e-01	5.000000e+00	
907	8.023000e-07	5.000000e+00	7.500000e-01	5.000000e+00	
908	8.027000e-07	5.000000e+00	1.750000e+00	5.000000e+00	
909	8.035000e-07	5.000000e+00	3.750000e+00	5.000000e+00	
910	8.040000e-07	5.000000e+00	5.000000e+00	5.000000e+00	
911	8.041000e-07	5.000000e+00	5.000000e+00	5.000000e+00	
912	8.043000e-07	5.000000e+00	5.000000e+00	5.000000e+00	
913	8.047000e-07	5.000000e+00	5.000000e+00	5.000000e+00	
914	8.055000e-07	5.000000e+00	5.000000e+00	5.000000e+00	
915	8.065000e-07	5.000000e+00	5.000000e+00	5.000000e+00	
916	8.075000e-07	5.000000e+00	5.000000e+00	5.000000e+00	
917	8.085000e-07	5.000000e+00	5.000000e+00	5.000000e+00	
918	8.095000e-07	5.000000e+00	5.000000e+00	5.000000e+00	
919	8.105000e-07	5.000000e+00	5.000000e+00	5.000000e+00	
920	8.115000e-07	5.000000e+00	5.000000e+00	5.000000e+00	
921	8.125000e-07	5.000000e+00	5.000000e+00	5.000000e+00	
922	8.135000e-07	5.000000e+00	5.000000e+00	5.000000e+00	
923	8.145000e-07	5.000000e+00	5.000000e+00	5.000000e+00	
924	8.155000e-07	5.000000e+00	5.000000e+00	5.000000e+00	

Index   time            v(din)          v(clkin)        v(clrin)        
--------------------------------------------------------------------------------
925	8.165000e-07	5.000000e+00	5.000000e+00	5.000000e+00	
926	8.175000e-07	5.000000e+00	5.000000e+00	5.000000e+00	
927	8.185000e-07	5.000000e+00	5.000000e+00	5.000000e+00	
928	8.195000e-07	5.000000e+00	5.000000e+00	5.000000e+00	
929	8.205000e-07	5.000000e+00	5.000000e+00	5.000000e+00	
930	8.215000e-07	5.000000e+00	5.000000e+00	5.000000e+00	
931	8.225000e-07	5.000000e+00	5.000000e+00	5.000000e+00	
932	8.235000e-07	5.000000e+00	5.000000e+00	5.000000e+00	
933	8.245000e-07	5.000000e+00	5.000000e+00	5.000000e+00	
934	8.255000e-07	5.000000e+00	5.000000e+00	5.000000e+00	
935	8.265000e-07	5.000000e+00	5.000000e+00	5.000000e+00	
936	8.275000e-07	5.000000e+00	5.000000e+00	5.000000e+00	
937	8.285000e-07	5.000000e+00	5.000000e+00	5.000000e+00	
938	8.295000e-07	5.000000e+00	5.000000e+00	5.000000e+00	
939	8.305000e-07	5.000000e+00	5.000000e+00	5.000000e+00	
940	8.315000e-07	5.000000e+00	5.000000e+00	5.000000e+00	
941	8.325000e-07	5.000000e+00	5.000000e+00	5.000000e+00	
942	8.335000e-07	5.000000e+00	5.000000e+00	5.000000e+00	
943	8.345000e-07	5.000000e+00	5.000000e+00	5.000000e+00	
944	8.355000e-07	5.000000e+00	5.000000e+00	5.000000e+00	
945	8.365000e-07	5.000000e+00	5.000000e+00	5.000000e+00	
946	8.375000e-07	5.000000e+00	5.000000e+00	5.000000e+00	
947	8.385000e-07	5.000000e+00	5.000000e+00	5.000000e+00	
948	8.395000e-07	5.000000e+00	5.000000e+00	5.000000e+00	
949	8.405000e-07	5.000000e+00	5.000000e+00	5.000000e+00	
950	8.415000e-07	5.000000e+00	5.000000e+00	5.000000e+00	
951	8.425000e-07	5.000000e+00	5.000000e+00	5.000000e+00	
952	8.435000e-07	5.000000e+00	5.000000e+00	5.000000e+00	
953	8.445000e-07	5.000000e+00	5.000000e+00	5.000000e+00	
954	8.455000e-07	5.000000e+00	5.000000e+00	5.000000e+00	
955	8.465000e-07	5.000000e+00	5.000000e+00	5.000000e+00	
956	8.475000e-07	5.000000e+00	5.000000e+00	5.000000e+00	
957	8.485000e-07	5.000000e+00	5.000000e+00	5.000000e+00	
958	8.495000e-07	5.000000e+00	5.000000e+00	5.000000e+00	
959	8.505000e-07	5.000000e+00	5.000000e+00	5.000000e+00	
960	8.515000e-07	5.000000e+00	5.000000e+00	5.000000e+00	
961	8.525000e-07	5.000000e+00	5.000000e+00	5.000000e+00	
962	8.535000e-07	5.000000e+00	5.000000e+00	5.000000e+00	
963	8.540000e-07	5.000000e+00	5.000000e+00	5.000000e+00	
964	8.541000e-07	5.000000e+00	4.750000e+00	5.000000e+00	
965	8.543000e-07	5.000000e+00	4.250000e+00	5.000000e+00	
966	8.547000e-07	5.000000e+00	3.250000e+00	5.000000e+00	
967	8.555000e-07	5.000000e+00	1.250000e+00	5.000000e+00	
968	8.560000e-07	5.000000e+00	0.000000e+00	5.000000e+00	
969	8.561000e-07	5.000000e+00	0.000000e+00	5.000000e+00	
970	8.563000e-07	5.000000e+00	0.000000e+00	5.000000e+00	
971	8.567000e-07	5.000000e+00	0.000000e+00	5.000000e+00	
972	8.575000e-07	5.000000e+00	0.000000e+00	5.000000e+00	
973	8.585000e-07	5.000000e+00	0.000000e+00	5.000000e+00	
974	8.595000e-07	5.000000e+00	0.000000e+00	5.000000e+00	
975	8.605000e-07	5.000000e+00	0.000000e+00	5.000000e+00	
976	8.615000e-07	5.000000e+00	0.000000e+00	5.000000e+00	
977	8.625000e-07	5.000000e+00	0.000000e+00	5.000000e+00	
978	8.635000e-07	5.000000e+00	0.000000e+00	5.000000e+00	
979	8.645000e-07	5.000000e+00	0.000000e+00	5.000000e+00	
980	8.655000e-07	5.000000e+00	0.000000e+00	5.000000e+00	
981	8.665000e-07	5.000000e+00	0.000000e+00	5.000000e+00	
982	8.675000e-07	5.000000e+00	0.000000e+00	5.000000e+00	

Index   time            v(din)          v(clkin)        v(clrin)        
--------------------------------------------------------------------------------
983	8.685000e-07	5.000000e+00	0.000000e+00	5.000000e+00	
984	8.695000e-07	5.000000e+00	0.000000e+00	5.000000e+00	
985	8.705000e-07	5.000000e+00	0.000000e+00	5.000000e+00	
986	8.715000e-07	5.000000e+00	0.000000e+00	5.000000e+00	
987	8.725000e-07	5.000000e+00	0.000000e+00	5.000000e+00	
988	8.735000e-07	5.000000e+00	0.000000e+00	5.000000e+00	
989	8.745000e-07	5.000000e+00	0.000000e+00	5.000000e+00	
990	8.755000e-07	5.000000e+00	0.000000e+00	5.000000e+00	
991	8.765000e-07	5.000000e+00	0.000000e+00	5.000000e+00	
992	8.775000e-07	5.000000e+00	0.000000e+00	5.000000e+00	
993	8.785000e-07	5.000000e+00	0.000000e+00	5.000000e+00	
994	8.795000e-07	5.000000e+00	0.000000e+00	5.000000e+00	
995	8.805000e-07	5.000000e+00	0.000000e+00	5.000000e+00	
996	8.815000e-07	5.000000e+00	0.000000e+00	5.000000e+00	
997	8.825000e-07	5.000000e+00	0.000000e+00	5.000000e+00	
998	8.835000e-07	5.000000e+00	0.000000e+00	5.000000e+00	
999	8.845000e-07	5.000000e+00	0.000000e+00	5.000000e+00	
1000	8.855000e-07	5.000000e+00	0.000000e+00	5.000000e+00	
1001	8.865000e-07	5.000000e+00	0.000000e+00	5.000000e+00	
1002	8.875000e-07	5.000000e+00	0.000000e+00	5.000000e+00	
1003	8.885000e-07	5.000000e+00	0.000000e+00	5.000000e+00	
1004	8.895000e-07	5.000000e+00	0.000000e+00	5.000000e+00	
1005	8.905000e-07	5.000000e+00	0.000000e+00	5.000000e+00	
1006	8.915000e-07	5.000000e+00	0.000000e+00	5.000000e+00	
1007	8.925000e-07	5.000000e+00	0.000000e+00	5.000000e+00	
1008	8.935000e-07	5.000000e+00	0.000000e+00	5.000000e+00	
1009	8.945000e-07	5.000000e+00	0.000000e+00	5.000000e+00	
1010	8.955000e-07	5.000000e+00	0.000000e+00	5.000000e+00	
1011	8.965000e-07	5.000000e+00	0.000000e+00	5.000000e+00	
1012	8.975000e-07	5.000000e+00	0.000000e+00	5.000000e+00	
1013	8.985000e-07	5.000000e+00	0.000000e+00	5.000000e+00	
1014	8.995000e-07	5.000000e+00	0.000000e+00	5.000000e+00	
1015	9.005000e-07	5.000000e+00	0.000000e+00	5.000000e+00	
1016	9.015000e-07	5.000000e+00	0.000000e+00	5.000000e+00	
1017	9.020000e-07	5.000000e+00	0.000000e+00	5.000000e+00	
1018	9.021000e-07	5.000000e+00	2.500000e-01	5.000000e+00	
1019	9.023000e-07	5.000000e+00	7.500000e-01	5.000000e+00	
1020	9.027000e-07	5.000000e+00	1.750000e+00	5.000000e+00	
1021	9.035000e-07	5.000000e+00	3.750000e+00	5.000000e+00	
1022	9.040000e-07	5.000000e+00	5.000000e+00	5.000000e+00	
1023	9.041000e-07	5.000000e+00	5.000000e+00	5.000000e+00	
1024	9.043000e-07	5.000000e+00	5.000000e+00	5.000000e+00	
1025	9.047000e-07	5.000000e+00	5.000000e+00	5.000000e+00	
1026	9.055000e-07	5.000000e+00	5.000000e+00	5.000000e+00	
1027	9.065000e-07	5.000000e+00	5.000000e+00	5.000000e+00	
1028	9.075000e-07	5.000000e+00	5.000000e+00	5.000000e+00	
1029	9.085000e-07	5.000000e+00	5.000000e+00	5.000000e+00	
1030	9.095000e-07	5.000000e+00	5.000000e+00	5.000000e+00	
1031	9.105000e-07	5.000000e+00	5.000000e+00	5.000000e+00	
1032	9.115000e-07	5.000000e+00	5.000000e+00	5.000000e+00	
1033	9.125000e-07	5.000000e+00	5.000000e+00	5.000000e+00	
1034	9.135000e-07	5.000000e+00	5.000000e+00	5.000000e+00	
1035	9.145000e-07	5.000000e+00	5.000000e+00	5.000000e+00	
1036	9.155000e-07	5.000000e+00	5.000000e+00	5.000000e+00	
1037	9.165000e-07	5.000000e+00	5.000000e+00	5.000000e+00	
1038	9.175000e-07	5.000000e+00	5.000000e+00	5.000000e+00	
1039	9.185000e-07	5.000000e+00	5.000000e+00	5.000000e+00	
1040	9.195000e-07	5.000000e+00	5.000000e+00	5.000000e+00	

Index   time            v(din)          v(clkin)        v(clrin)        
--------------------------------------------------------------------------------
1041	9.205000e-07	5.000000e+00	5.000000e+00	5.000000e+00	
1042	9.215000e-07	5.000000e+00	5.000000e+00	5.000000e+00	
1043	9.225000e-07	5.000000e+00	5.000000e+00	5.000000e+00	
1044	9.235000e-07	5.000000e+00	5.000000e+00	5.000000e+00	
1045	9.245000e-07	5.000000e+00	5.000000e+00	5.000000e+00	
1046	9.255000e-07	5.000000e+00	5.000000e+00	5.000000e+00	
1047	9.265000e-07	5.000000e+00	5.000000e+00	5.000000e+00	
1048	9.275000e-07	5.000000e+00	5.000000e+00	5.000000e+00	
1049	9.285000e-07	5.000000e+00	5.000000e+00	5.000000e+00	
1050	9.295000e-07	5.000000e+00	5.000000e+00	5.000000e+00	
1051	9.305000e-07	5.000000e+00	5.000000e+00	5.000000e+00	
1052	9.315000e-07	5.000000e+00	5.000000e+00	5.000000e+00	
1053	9.325000e-07	5.000000e+00	5.000000e+00	5.000000e+00	
1054	9.335000e-07	5.000000e+00	5.000000e+00	5.000000e+00	
1055	9.345000e-07	5.000000e+00	5.000000e+00	5.000000e+00	
1056	9.355000e-07	5.000000e+00	5.000000e+00	5.000000e+00	
1057	9.365000e-07	5.000000e+00	5.000000e+00	5.000000e+00	
1058	9.375000e-07	5.000000e+00	5.000000e+00	5.000000e+00	
1059	9.385000e-07	5.000000e+00	5.000000e+00	5.000000e+00	
1060	9.395000e-07	5.000000e+00	5.000000e+00	5.000000e+00	
1061	9.405000e-07	5.000000e+00	5.000000e+00	5.000000e+00	
1062	9.415000e-07	5.000000e+00	5.000000e+00	5.000000e+00	
1063	9.425000e-07	5.000000e+00	5.000000e+00	5.000000e+00	
1064	9.435000e-07	5.000000e+00	5.000000e+00	5.000000e+00	
1065	9.445000e-07	5.000000e+00	5.000000e+00	5.000000e+00	
1066	9.455000e-07	5.000000e+00	5.000000e+00	5.000000e+00	
1067	9.465000e-07	5.000000e+00	5.000000e+00	5.000000e+00	
1068	9.475000e-07	5.000000e+00	5.000000e+00	5.000000e+00	
1069	9.485000e-07	5.000000e+00	5.000000e+00	5.000000e+00	
1070	9.495000e-07	5.000000e+00	5.000000e+00	5.000000e+00	
1071	9.505000e-07	5.000000e+00	5.000000e+00	5.000000e+00	
1072	9.515000e-07	5.000000e+00	5.000000e+00	5.000000e+00	
1073	9.525000e-07	5.000000e+00	5.000000e+00	5.000000e+00	
1074	9.535000e-07	5.000000e+00	5.000000e+00	5.000000e+00	
1075	9.540000e-07	5.000000e+00	5.000000e+00	5.000000e+00	
1076	9.541000e-07	5.000000e+00	4.750000e+00	5.000000e+00	
1077	9.543000e-07	5.000000e+00	4.250000e+00	5.000000e+00	
1078	9.547000e-07	5.000000e+00	3.250000e+00	5.000000e+00	
1079	9.555000e-07	5.000000e+00	1.250000e+00	5.000000e+00	
1080	9.560000e-07	5.000000e+00	0.000000e+00	5.000000e+00	
1081	9.561000e-07	5.000000e+00	0.000000e+00	5.000000e+00	
1082	9.563000e-07	5.000000e+00	0.000000e+00	5.000000e+00	
1083	9.567000e-07	5.000000e+00	0.000000e+00	5.000000e+00	
1084	9.575000e-07	5.000000e+00	0.000000e+00	5.000000e+00	
1085	9.585000e-07	5.000000e+00	0.000000e+00	5.000000e+00	
1086	9.595000e-07	5.000000e+00	0.000000e+00	5.000000e+00	
1087	9.605000e-07	5.000000e+00	0.000000e+00	5.000000e+00	
1088	9.615000e-07	5.000000e+00	0.000000e+00	5.000000e+00	
1089	9.625000e-07	5.000000e+00	0.000000e+00	5.000000e+00	
1090	9.635000e-07	5.000000e+00	0.000000e+00	5.000000e+00	
1091	9.645000e-07	5.000000e+00	0.000000e+00	5.000000e+00	
1092	9.655000e-07	5.000000e+00	0.000000e+00	5.000000e+00	
1093	9.665000e-07	5.000000e+00	0.000000e+00	5.000000e+00	
1094	9.675000e-07	5.000000e+00	0.000000e+00	5.000000e+00	
1095	9.685000e-07	5.000000e+00	0.000000e+00	5.000000e+00	
1096	9.695000e-07	5.000000e+00	0.000000e+00	5.000000e+00	
1097	9.705000e-07	5.000000e+00	0.000000e+00	5.000000e+00	
1098	9.715000e-07	5.000000e+00	0.000000e+00	5.000000e+00	

Index   time            v(din)          v(clkin)        v(clrin)        
--------------------------------------------------------------------------------
1099	9.725000e-07	5.000000e+00	0.000000e+00	5.000000e+00	
1100	9.735000e-07	5.000000e+00	0.000000e+00	5.000000e+00	
1101	9.745000e-07	5.000000e+00	0.000000e+00	5.000000e+00	
1102	9.755000e-07	5.000000e+00	0.000000e+00	5.000000e+00	
1103	9.765000e-07	5.000000e+00	0.000000e+00	5.000000e+00	
1104	9.775000e-07	5.000000e+00	0.000000e+00	5.000000e+00	
1105	9.785000e-07	5.000000e+00	0.000000e+00	5.000000e+00	
1106	9.795000e-07	5.000000e+00	0.000000e+00	5.000000e+00	
1107	9.805000e-07	5.000000e+00	0.000000e+00	5.000000e+00	
1108	9.815000e-07	5.000000e+00	0.000000e+00	5.000000e+00	
1109	9.825000e-07	5.000000e+00	0.000000e+00	5.000000e+00	
1110	9.835000e-07	5.000000e+00	0.000000e+00	5.000000e+00	
1111	9.845000e-07	5.000000e+00	0.000000e+00	5.000000e+00	
1112	9.855000e-07	5.000000e+00	0.000000e+00	5.000000e+00	
1113	9.865000e-07	5.000000e+00	0.000000e+00	5.000000e+00	
1114	9.875000e-07	5.000000e+00	0.000000e+00	5.000000e+00	
1115	9.885000e-07	5.000000e+00	0.000000e+00	5.000000e+00	
1116	9.895000e-07	5.000000e+00	0.000000e+00	5.000000e+00	
1117	9.905000e-07	5.000000e+00	0.000000e+00	5.000000e+00	
1118	9.915000e-07	5.000000e+00	0.000000e+00	5.000000e+00	
1119	9.925000e-07	5.000000e+00	0.000000e+00	5.000000e+00	
1120	9.935000e-07	5.000000e+00	0.000000e+00	5.000000e+00	
1121	9.945000e-07	5.000000e+00	0.000000e+00	5.000000e+00	
1122	9.955000e-07	5.000000e+00	0.000000e+00	5.000000e+00	
1123	9.965000e-07	5.000000e+00	0.000000e+00	5.000000e+00	
1124	9.975000e-07	5.000000e+00	0.000000e+00	5.000000e+00	
1125	9.985000e-07	5.000000e+00	0.000000e+00	5.000000e+00	
1126	9.995000e-07	5.000000e+00	0.000000e+00	5.000000e+00	
1127	1.000500e-06	5.000000e+00	0.000000e+00	5.000000e+00	
1128	1.001500e-06	5.000000e+00	0.000000e+00	5.000000e+00	
1129	1.002000e-06	5.000000e+00	0.000000e+00	5.000000e+00	
1130	1.002100e-06	5.000000e+00	2.500000e-01	5.000000e+00	
1131	1.002300e-06	5.000000e+00	7.500000e-01	5.000000e+00	
1132	1.002700e-06	5.000000e+00	1.750000e+00	5.000000e+00	
1133	1.003500e-06	5.000000e+00	3.750000e+00	5.000000e+00	
1134	1.004000e-06	5.000000e+00	5.000000e+00	5.000000e+00	
1135	1.004100e-06	5.000000e+00	5.000000e+00	5.000000e+00	
1136	1.004300e-06	5.000000e+00	5.000000e+00	5.000000e+00	
1137	1.004700e-06	5.000000e+00	5.000000e+00	5.000000e+00	
1138	1.005500e-06	5.000000e+00	5.000000e+00	5.000000e+00	
1139	1.006500e-06	5.000000e+00	5.000000e+00	5.000000e+00	
1140	1.007500e-06	5.000000e+00	5.000000e+00	5.000000e+00	
1141	1.008500e-06	5.000000e+00	5.000000e+00	5.000000e+00	
1142	1.009500e-06	5.000000e+00	5.000000e+00	5.000000e+00	
1143	1.010500e-06	5.000000e+00	5.000000e+00	5.000000e+00	
1144	1.011500e-06	5.000000e+00	5.000000e+00	5.000000e+00	
1145	1.012500e-06	5.000000e+00	5.000000e+00	5.000000e+00	
1146	1.013500e-06	5.000000e+00	5.000000e+00	5.000000e+00	
1147	1.014500e-06	5.000000e+00	5.000000e+00	5.000000e+00	
1148	1.015500e-06	5.000000e+00	5.000000e+00	5.000000e+00	
1149	1.016500e-06	5.000000e+00	5.000000e+00	5.000000e+00	
1150	1.017500e-06	5.000000e+00	5.000000e+00	5.000000e+00	
1151	1.018500e-06	5.000000e+00	5.000000e+00	5.000000e+00	
1152	1.019500e-06	5.000000e+00	5.000000e+00	5.000000e+00	
1153	1.020500e-06	5.000000e+00	5.000000e+00	5.000000e+00	
1154	1.021500e-06	5.000000e+00	5.000000e+00	5.000000e+00	
1155	1.022500e-06	5.000000e+00	5.000000e+00	5.000000e+00	
1156	1.023500e-06	5.000000e+00	5.000000e+00	5.000000e+00	

Index   time            v(din)          v(clkin)        v(clrin)        
--------------------------------------------------------------------------------
1157	1.024500e-06	5.000000e+00	5.000000e+00	5.000000e+00	
1158	1.025500e-06	5.000000e+00	5.000000e+00	5.000000e+00	
1159	1.026500e-06	5.000000e+00	5.000000e+00	5.000000e+00	
1160	1.027500e-06	5.000000e+00	5.000000e+00	5.000000e+00	
1161	1.028500e-06	5.000000e+00	5.000000e+00	5.000000e+00	
1162	1.029500e-06	5.000000e+00	5.000000e+00	5.000000e+00	
1163	1.030500e-06	5.000000e+00	5.000000e+00	5.000000e+00	
1164	1.031500e-06	5.000000e+00	5.000000e+00	5.000000e+00	
1165	1.032500e-06	5.000000e+00	5.000000e+00	5.000000e+00	
1166	1.033500e-06	5.000000e+00	5.000000e+00	5.000000e+00	
1167	1.034500e-06	5.000000e+00	5.000000e+00	5.000000e+00	
1168	1.035500e-06	5.000000e+00	5.000000e+00	5.000000e+00	
1169	1.036500e-06	5.000000e+00	5.000000e+00	5.000000e+00	
1170	1.037500e-06	5.000000e+00	5.000000e+00	5.000000e+00	
1171	1.038500e-06	5.000000e+00	5.000000e+00	5.000000e+00	
1172	1.039500e-06	5.000000e+00	5.000000e+00	5.000000e+00	
1173	1.040500e-06	5.000000e+00	5.000000e+00	5.000000e+00	
1174	1.041500e-06	5.000000e+00	5.000000e+00	5.000000e+00	
1175	1.042500e-06	5.000000e+00	5.000000e+00	5.000000e+00	
1176	1.043500e-06	5.000000e+00	5.000000e+00	5.000000e+00	
1177	1.044500e-06	5.000000e+00	5.000000e+00	5.000000e+00	
1178	1.045500e-06	5.000000e+00	5.000000e+00	5.000000e+00	
1179	1.046500e-06	5.000000e+00	5.000000e+00	5.000000e+00	
1180	1.047500e-06	5.000000e+00	5.000000e+00	5.000000e+00	
1181	1.048500e-06	5.000000e+00	5.000000e+00	5.000000e+00	
1182	1.049500e-06	5.000000e+00	5.000000e+00	5.000000e+00	
1183	1.050500e-06	5.000000e+00	5.000000e+00	5.000000e+00	
1184	1.051500e-06	5.000000e+00	5.000000e+00	5.000000e+00	
1185	1.052500e-06	5.000000e+00	5.000000e+00	5.000000e+00	
1186	1.053500e-06	5.000000e+00	5.000000e+00	5.000000e+00	
1187	1.054000e-06	5.000000e+00	5.000000e+00	5.000000e+00	
1188	1.054100e-06	5.000000e+00	4.750000e+00	5.000000e+00	
1189	1.054300e-06	5.000000e+00	4.250000e+00	5.000000e+00	
1190	1.054700e-06	5.000000e+00	3.250000e+00	5.000000e+00	
1191	1.055500e-06	5.000000e+00	1.250000e+00	5.000000e+00	
1192	1.056000e-06	5.000000e+00	4.520828e-13	5.000000e+00	
1193	1.056100e-06	5.000000e+00	0.000000e+00	5.000000e+00	
1194	1.056300e-06	5.000000e+00	0.000000e+00	5.000000e+00	
1195	1.056700e-06	5.000000e+00	0.000000e+00	5.000000e+00	
1196	1.057500e-06	5.000000e+00	0.000000e+00	5.000000e+00	
1197	1.058500e-06	5.000000e+00	0.000000e+00	5.000000e+00	
1198	1.059500e-06	5.000000e+00	0.000000e+00	5.000000e+00	
1199	1.060500e-06	5.000000e+00	0.000000e+00	5.000000e+00	
1200	1.061500e-06	5.000000e+00	0.000000e+00	5.000000e+00	
1201	1.062500e-06	5.000000e+00	0.000000e+00	5.000000e+00	
1202	1.063500e-06	5.000000e+00	0.000000e+00	5.000000e+00	
1203	1.064500e-06	5.000000e+00	0.000000e+00	5.000000e+00	
1204	1.065500e-06	5.000000e+00	0.000000e+00	5.000000e+00	
1205	1.066500e-06	5.000000e+00	0.000000e+00	5.000000e+00	
1206	1.067500e-06	5.000000e+00	0.000000e+00	5.000000e+00	
1207	1.068500e-06	5.000000e+00	0.000000e+00	5.000000e+00	
1208	1.069500e-06	5.000000e+00	0.000000e+00	5.000000e+00	
1209	1.070500e-06	5.000000e+00	0.000000e+00	5.000000e+00	
1210	1.071500e-06	5.000000e+00	0.000000e+00	5.000000e+00	
1211	1.072500e-06	5.000000e+00	0.000000e+00	5.000000e+00	
1212	1.073500e-06	5.000000e+00	0.000000e+00	5.000000e+00	
1213	1.074500e-06	5.000000e+00	0.000000e+00	5.000000e+00	
1214	1.075500e-06	5.000000e+00	0.000000e+00	5.000000e+00	

Index   time            v(din)          v(clkin)        v(clrin)        
--------------------------------------------------------------------------------
1215	1.076500e-06	5.000000e+00	0.000000e+00	5.000000e+00	
1216	1.077500e-06	5.000000e+00	0.000000e+00	5.000000e+00	
1217	1.078500e-06	5.000000e+00	0.000000e+00	5.000000e+00	
1218	1.079500e-06	5.000000e+00	0.000000e+00	5.000000e+00	
1219	1.080500e-06	5.000000e+00	0.000000e+00	5.000000e+00	
1220	1.081500e-06	5.000000e+00	0.000000e+00	5.000000e+00	
1221	1.082500e-06	5.000000e+00	0.000000e+00	5.000000e+00	
1222	1.083500e-06	5.000000e+00	0.000000e+00	5.000000e+00	
1223	1.084500e-06	5.000000e+00	0.000000e+00	5.000000e+00	
1224	1.085500e-06	5.000000e+00	0.000000e+00	5.000000e+00	
1225	1.086500e-06	5.000000e+00	0.000000e+00	5.000000e+00	
1226	1.087500e-06	5.000000e+00	0.000000e+00	5.000000e+00	
1227	1.088500e-06	5.000000e+00	0.000000e+00	5.000000e+00	
1228	1.089500e-06	5.000000e+00	0.000000e+00	5.000000e+00	
1229	1.090500e-06	5.000000e+00	0.000000e+00	5.000000e+00	
1230	1.091500e-06	5.000000e+00	0.000000e+00	5.000000e+00	
1231	1.092500e-06	5.000000e+00	0.000000e+00	5.000000e+00	
1232	1.093500e-06	5.000000e+00	0.000000e+00	5.000000e+00	
1233	1.094500e-06	5.000000e+00	0.000000e+00	5.000000e+00	
1234	1.095500e-06	5.000000e+00	0.000000e+00	5.000000e+00	
1235	1.096500e-06	5.000000e+00	0.000000e+00	5.000000e+00	
1236	1.097500e-06	5.000000e+00	0.000000e+00	5.000000e+00	
1237	1.098500e-06	5.000000e+00	0.000000e+00	5.000000e+00	
1238	1.099500e-06	5.000000e+00	0.000000e+00	5.000000e+00	
1239	1.100500e-06	5.000000e+00	0.000000e+00	5.000000e+00	
1240	1.101500e-06	5.000000e+00	0.000000e+00	5.000000e+00	
1241	1.102000e-06	5.000000e+00	5.293956e-13	5.000000e+00	
1242	1.102100e-06	5.000000e+00	2.500000e-01	5.000000e+00	
1243	1.102300e-06	5.000000e+00	7.500000e-01	5.000000e+00	
1244	1.102700e-06	5.000000e+00	1.750000e+00	5.000000e+00	
1245	1.103500e-06	5.000000e+00	3.750000e+00	5.000000e+00	
1246	1.104000e-06	5.000000e+00	5.000000e+00	5.000000e+00	
1247	1.104100e-06	5.000000e+00	5.000000e+00	5.000000e+00	
1248	1.104300e-06	5.000000e+00	5.000000e+00	5.000000e+00	
1249	1.104700e-06	5.000000e+00	5.000000e+00	5.000000e+00	
1250	1.105500e-06	5.000000e+00	5.000000e+00	5.000000e+00	
1251	1.106500e-06	5.000000e+00	5.000000e+00	5.000000e+00	
1252	1.107500e-06	5.000000e+00	5.000000e+00	5.000000e+00	
1253	1.108500e-06	5.000000e+00	5.000000e+00	5.000000e+00	
1254	1.109500e-06	5.000000e+00	5.000000e+00	5.000000e+00	
1255	1.110500e-06	5.000000e+00	5.000000e+00	5.000000e+00	
1256	1.111500e-06	5.000000e+00	5.000000e+00	5.000000e+00	
1257	1.112500e-06	5.000000e+00	5.000000e+00	5.000000e+00	
1258	1.113500e-06	5.000000e+00	5.000000e+00	5.000000e+00	
1259	1.114500e-06	5.000000e+00	5.000000e+00	5.000000e+00	
1260	1.115500e-06	5.000000e+00	5.000000e+00	5.000000e+00	
1261	1.116500e-06	5.000000e+00	5.000000e+00	5.000000e+00	
1262	1.117500e-06	5.000000e+00	5.000000e+00	5.000000e+00	
1263	1.118500e-06	5.000000e+00	5.000000e+00	5.000000e+00	
1264	1.119500e-06	5.000000e+00	5.000000e+00	5.000000e+00	
1265	1.120500e-06	5.000000e+00	5.000000e+00	5.000000e+00	
1266	1.121500e-06	5.000000e+00	5.000000e+00	5.000000e+00	
1267	1.122500e-06	5.000000e+00	5.000000e+00	5.000000e+00	
1268	1.123500e-06	5.000000e+00	5.000000e+00	5.000000e+00	
1269	1.124500e-06	5.000000e+00	5.000000e+00	5.000000e+00	
1270	1.125500e-06	5.000000e+00	5.000000e+00	5.000000e+00	
1271	1.126500e-06	5.000000e+00	5.000000e+00	5.000000e+00	
1272	1.127500e-06	5.000000e+00	5.000000e+00	5.000000e+00	

Index   time            v(din)          v(clkin)        v(clrin)        
--------------------------------------------------------------------------------
1273	1.128500e-06	5.000000e+00	5.000000e+00	5.000000e+00	
1274	1.129500e-06	5.000000e+00	5.000000e+00	5.000000e+00	
1275	1.130500e-06	5.000000e+00	5.000000e+00	5.000000e+00	
1276	1.131500e-06	5.000000e+00	5.000000e+00	5.000000e+00	
1277	1.132500e-06	5.000000e+00	5.000000e+00	5.000000e+00	
1278	1.133500e-06	5.000000e+00	5.000000e+00	5.000000e+00	
1279	1.134500e-06	5.000000e+00	5.000000e+00	5.000000e+00	
1280	1.135500e-06	5.000000e+00	5.000000e+00	5.000000e+00	
1281	1.136500e-06	5.000000e+00	5.000000e+00	5.000000e+00	
1282	1.137500e-06	5.000000e+00	5.000000e+00	5.000000e+00	
1283	1.138500e-06	5.000000e+00	5.000000e+00	5.000000e+00	
1284	1.139500e-06	5.000000e+00	5.000000e+00	5.000000e+00	
1285	1.140500e-06	5.000000e+00	5.000000e+00	5.000000e+00	
1286	1.141500e-06	5.000000e+00	5.000000e+00	5.000000e+00	
1287	1.142500e-06	5.000000e+00	5.000000e+00	5.000000e+00	
1288	1.143500e-06	5.000000e+00	5.000000e+00	5.000000e+00	
1289	1.144500e-06	5.000000e+00	5.000000e+00	5.000000e+00	
1290	1.145500e-06	5.000000e+00	5.000000e+00	5.000000e+00	
1291	1.146500e-06	5.000000e+00	5.000000e+00	5.000000e+00	
1292	1.147500e-06	5.000000e+00	5.000000e+00	5.000000e+00	
1293	1.148500e-06	5.000000e+00	5.000000e+00	5.000000e+00	
1294	1.149500e-06	5.000000e+00	5.000000e+00	5.000000e+00	
1295	1.150500e-06	5.000000e+00	5.000000e+00	5.000000e+00	
1296	1.151500e-06	5.000000e+00	5.000000e+00	5.000000e+00	
1297	1.152500e-06	5.000000e+00	5.000000e+00	5.000000e+00	
1298	1.153500e-06	5.000000e+00	5.000000e+00	5.000000e+00	
1299	1.154000e-06	5.000000e+00	5.000000e+00	5.000000e+00	
1300	1.154100e-06	5.000000e+00	4.750000e+00	5.000000e+00	
1301	1.154300e-06	5.000000e+00	4.250000e+00	5.000000e+00	
1302	1.154700e-06	5.000000e+00	3.250000e+00	5.000000e+00	
1303	1.155500e-06	5.000000e+00	1.250000e+00	5.000000e+00	
1304	1.156000e-06	5.000000e+00	4.520828e-13	5.000000e+00	
1305	1.156100e-06	5.000000e+00	0.000000e+00	5.000000e+00	
1306	1.156300e-06	5.000000e+00	0.000000e+00	5.000000e+00	
1307	1.156700e-06	5.000000e+00	0.000000e+00	5.000000e+00	
1308	1.157500e-06	5.000000e+00	0.000000e+00	5.000000e+00	
1309	1.158500e-06	5.000000e+00	0.000000e+00	5.000000e+00	
1310	1.159500e-06	5.000000e+00	0.000000e+00	5.000000e+00	
[...]
1667	1.480500e-06	9.275702e-02	
1668	1.481500e-06	9.275702e-02	
1669	1.482500e-06	9.275702e-02	
1670	1.483500e-06	9.275702e-02	
1671	1.484500e-06	9.275702e-02	
1672	1.485500e-06	9.275702e-02	
1673	1.486500e-06	9.275702e-02	
1674	1.487500e-06	9.275702e-02	
1675	1.488500e-06	9.275702e-02	
1676	1.489500e-06	9.275702e-02	
1677	1.490500e-06	9.275702e-02	
1678	1.491500e-06	9.275702e-02	

Index   time            v(flipflopdclrq 
--------------------------------------------------------------------------------
1679	1.492500e-06	9.275702e-02	
1680	1.493500e-06	9.275702e-02	
1681	1.494500e-06	9.275702e-02	
1682	1.495500e-06	9.275702e-02	
1683	1.496500e-06	9.275702e-02	
1684	1.497500e-06	9.275702e-02	
1685	1.498500e-06	9.275702e-02	
1686	1.499500e-06	9.275702e-02	
1687	1.500500e-06	9.275702e-02	
1688	1.501500e-06	9.275702e-02	
1689	1.502000e-06	9.275702e-02	
1690	1.502100e-06	9.277308e-02	
1691	1.502300e-06	9.280132e-02	
1692	1.502700e-06	9.283049e-02	
1693	1.503500e-06	7.095194e-02	
1694	1.504000e-06	7.095763e-02	
1695	1.504100e-06	7.095763e-02	
1696	1.504300e-06	7.095763e-02	
1697	1.504700e-06	7.095763e-02	
1698	1.505500e-06	7.095763e-02	
1699	1.506500e-06	7.095763e-02	
1700	1.507500e-06	7.095763e-02	
1701	1.508500e-06	7.095763e-02	
1702	1.509500e-06	7.095763e-02	
1703	1.510500e-06	7.095763e-02	
1704	1.511500e-06	7.095763e-02	
1705	1.512500e-06	7.095763e-02	
1706	1.513500e-06	7.095763e-02	
1707	1.514500e-06	7.095763e-02	
1708	1.515500e-06	7.095763e-02	
1709	1.516500e-06	7.095763e-02	
1710	1.517500e-06	7.095763e-02	
1711	1.518500e-06	7.095763e-02	
1712	1.519500e-06	7.095763e-02	
1713	1.520500e-06	7.095763e-02	
1714	1.521500e-06	7.095763e-02	
1715	1.522500e-06	7.095763e-02	
1716	1.523500e-06	7.095763e-02	
1717	1.524500e-06	7.095763e-02	
1718	1.525500e-06	7.095763e-02	
1719	1.526500e-06	7.095763e-02	
1720	1.527500e-06	7.095763e-02	
1721	1.528500e-06	7.095763e-02	
1722	1.529500e-06	7.095763e-02	
1723	1.530500e-06	7.095763e-02	
1724	1.531500e-06	7.095763e-02	
1725	1.532500e-06	7.095763e-02	
1726	1.533500e-06	7.095763e-02	
1727	1.534500e-06	7.095763e-02	
1728	1.535500e-06	7.095763e-02	
1729	1.536500e-06	7.095763e-02	
1730	1.537500e-06	7.095763e-02	
1731	1.538500e-06	7.095763e-02	
1732	1.539500e-06	7.095763e-02	
1733	1.540500e-06	7.095763e-02	
1734	1.541500e-06	7.095763e-02	
1735	1.542500e-06	7.095763e-02	
1736	1.543500e-06	7.095763e-02	

Index   time            v(flipflopdclrq 
--------------------------------------------------------------------------------
1737	1.544500e-06	7.095763e-02	
1738	1.545500e-06	7.095763e-02	
1739	1.546500e-06	7.095763e-02	
1740	1.547500e-06	7.095763e-02	
1741	1.548500e-06	7.095763e-02	
1742	1.549500e-06	7.095763e-02	
1743	1.550500e-06	7.095763e-02	
1744	1.551500e-06	7.095763e-02	
1745	1.552500e-06	7.095763e-02	
1746	1.553500e-06	7.095763e-02	
1747	1.554000e-06	7.095763e-02	
1748	1.554100e-06	7.095646e-02	
1749	1.554300e-06	7.095412e-02	
1750	1.554700e-06	7.095024e-02	
1751	1.555500e-06	9.282502e-02	
1752	1.556000e-06	9.275754e-02	
1753	1.556100e-06	9.275759e-02	
1754	1.556300e-06	9.275703e-02	
1755	1.556700e-06	9.275702e-02	
1756	1.557500e-06	9.275702e-02	
1757	1.558500e-06	9.275702e-02	
1758	1.559500e-06	9.275702e-02	
1759	1.560500e-06	9.275702e-02	
1760	1.561500e-06	9.275702e-02	
1761	1.562500e-06	9.275702e-02	
1762	1.563500e-06	9.275702e-02	
1763	1.564500e-06	9.275702e-02	
1764	1.565500e-06	9.275702e-02	
1765	1.566500e-06	9.275702e-02	
1766	1.567500e-06	9.275702e-02	
1767	1.568500e-06	9.275702e-02	
1768	1.569500e-06	9.275702e-02	
1769	1.570500e-06	9.275702e-02	
1770	1.571500e-06	9.275702e-02	
1771	1.572500e-06	9.275702e-02	
1772	1.573500e-06	9.275702e-02	
1773	1.574500e-06	9.275702e-02	
1774	1.575500e-06	9.275702e-02	
1775	1.576500e-06	9.275702e-02	
1776	1.577500e-06	9.275702e-02	
1777	1.578500e-06	9.275702e-02	
1778	1.579500e-06	9.275702e-02	
1779	1.580500e-06	9.275702e-02	
1780	1.581500e-06	9.275702e-02	
1781	1.582500e-06	9.275702e-02	
1782	1.583500e-06	9.275702e-02	
1783	1.584500e-06	9.275702e-02	
1784	1.585500e-06	9.275702e-02	
1785	1.586500e-06	9.275702e-02	
1786	1.587500e-06	9.275702e-02	
1787	1.588500e-06	9.275702e-02	
1788	1.589500e-06	9.275702e-02	
1789	1.590500e-06	9.275702e-02	
1790	1.591500e-06	9.275702e-02	
1791	1.592500e-06	9.275702e-02	
1792	1.593500e-06	9.275702e-02	
1793	1.594500e-06	9.275702e-02	
1794	1.595500e-06	9.275702e-02	

Index   time            v(flipflopdclrq 
--------------------------------------------------------------------------------
1795	1.596500e-06	9.275702e-02	
1796	1.597500e-06	9.275702e-02	
1797	1.598500e-06	9.275702e-02	
1798	1.599500e-06	9.275702e-02	
1799	1.600500e-06	9.275702e-02	
1800	1.601500e-06	9.275702e-02	
1801	1.602000e-06	9.275702e-02	
1802	1.602100e-06	9.277308e-02	
1803	1.602300e-06	9.280132e-02	
1804	1.602700e-06	9.283049e-02	
1805	1.603500e-06	7.095194e-02	
1806	1.604000e-06	7.095763e-02	
1807	1.604100e-06	7.095763e-02	
1808	1.604300e-06	7.095763e-02	
1809	1.604700e-06	7.095763e-02	
1810	1.605500e-06	7.095763e-02	
1811	1.606500e-06	7.095763e-02	
1812	1.607500e-06	7.095763e-02	
1813	1.608500e-06	7.095763e-02	
1814	1.609500e-06	7.095763e-02	
1815	1.610500e-06	7.095763e-02	
1816	1.611500e-06	7.095763e-02	
1817	1.612500e-06	7.095763e-02	
1818	1.613500e-06	7.095763e-02	
1819	1.614500e-06	7.095763e-02	
1820	1.615500e-06	7.095763e-02	
1821	1.616500e-06	7.095763e-02	
1822	1.617500e-06	7.095763e-02	
1823	1.618500e-06	7.095763e-02	
1824	1.619500e-06	7.095763e-02	
1825	1.620500e-06	7.095763e-02	
1826	1.621500e-06	7.095763e-02	
1827	1.622500e-06	7.095763e-02	
1828	1.623500e-06	7.095763e-02	
1829	1.624500e-06	7.095763e-02	
1830	1.625500e-06	7.095763e-02	
1831	1.626500e-06	7.095763e-02	
1832	1.627500e-06	7.095763e-02	
1833	1.628500e-06	7.095763e-02	
1834	1.629500e-06	7.095763e-02	
1835	1.630500e-06	7.095763e-02	
1836	1.631500e-06	7.095763e-02	
1837	1.632500e-06	7.095763e-02	
1838	1.633500e-06	7.095763e-02	
1839	1.634500e-06	7.095763e-02	
1840	1.635500e-06	7.095763e-02	
1841	1.636500e-06	7.095763e-02	
1842	1.637500e-06	7.095763e-02	
1843	1.638500e-06	7.095763e-02	
1844	1.639500e-06	7.095763e-02	
1845	1.640500e-06	7.095763e-02	
1846	1.641500e-06	7.095763e-02	
1847	1.642500e-06	7.095763e-02	
1848	1.643500e-06	7.095763e-02	
1849	1.644500e-06	7.095763e-02	
1850	1.645500e-06	7.095763e-02	
1851	1.646500e-06	7.095763e-02	
1852	1.647500e-06	7.095763e-02	

Index   time            v(flipflopdclrq 
--------------------------------------------------------------------------------
1853	1.648500e-06	7.095763e-02	
1854	1.649500e-06	7.095763e-02	
1855	1.650500e-06	7.095763e-02	
1856	1.651500e-06	7.095763e-02	
1857	1.652500e-06	7.095763e-02	
1858	1.653500e-06	7.095763e-02	
1859	1.654000e-06	7.095763e-02	
1860	1.654100e-06	7.095646e-02	
1861	1.654300e-06	7.095412e-02	
1862	1.654700e-06	7.095024e-02	
1863	1.655500e-06	9.282502e-02	
1864	1.656000e-06	9.275754e-02	
1865	1.656100e-06	9.275759e-02	
1866	1.656300e-06	9.275703e-02	
1867	1.656700e-06	9.275702e-02	
1868	1.657500e-06	9.275702e-02	
1869	1.658500e-06	9.275702e-02	
1870	1.659500e-06	9.275702e-02	
1871	1.660500e-06	9.275702e-02	
1872	1.661500e-06	9.275702e-02	
1873	1.662500e-06	9.275702e-02	
1874	1.663500e-06	9.275702e-02	
1875	1.664500e-06	9.275702e-02	
1876	1.665500e-06	9.275702e-02	
1877	1.666500e-06	9.275702e-02	
1878	1.667500e-06	9.275702e-02	
1879	1.668500e-06	9.275702e-02	
1880	1.669500e-06	9.275702e-02	
1881	1.670500e-06	9.275702e-02	
1882	1.671500e-06	9.275702e-02	
1883	1.672500e-06	9.275702e-02	
1884	1.673500e-06	9.275702e-02	
1885	1.674500e-06	9.275702e-02	
1886	1.675500e-06	9.275702e-02	
1887	1.676500e-06	9.275702e-02	
1888	1.677500e-06	9.275702e-02	
1889	1.678500e-06	9.275702e-02	
1890	1.679500e-06	9.275702e-02	
1891	1.680500e-06	9.275702e-02	
1892	1.681500e-06	9.275702e-02	
1893	1.682500e-06	9.275702e-02	
1894	1.683500e-06	9.275702e-02	
1895	1.684500e-06	9.275702e-02	
1896	1.685500e-06	9.275702e-02	
1897	1.686500e-06	9.275702e-02	
1898	1.687500e-06	9.275702e-02	
1899	1.688500e-06	9.275702e-02	
1900	1.689500e-06	9.275702e-02	
1901	1.690500e-06	9.275702e-02	
1902	1.691500e-06	9.275702e-02	
1903	1.692500e-06	9.275702e-02	
1904	1.693500e-06	9.275702e-02	
1905	1.694500e-06	9.275702e-02	
1906	1.695500e-06	9.275702e-02	
1907	1.696500e-06	9.275702e-02	
1908	1.697500e-06	9.275702e-02	
1909	1.698500e-06	9.275702e-02	
1910	1.699500e-06	9.275702e-02	

Index   time            v(flipflopdclrq 
--------------------------------------------------------------------------------
1911	1.700500e-06	9.275702e-02	
1912	1.701500e-06	9.275702e-02	
1913	1.702000e-06	9.275702e-02	
1914	1.702100e-06	9.277308e-02	
1915	1.702300e-06	9.280132e-02	
1916	1.702700e-06	9.283049e-02	
1917	1.703500e-06	7.095194e-02	
1918	1.704000e-06	7.095763e-02	
1919	1.704100e-06	7.095763e-02	
1920	1.704300e-06	7.095763e-02	
1921	1.704700e-06	7.095763e-02	
1922	1.705500e-06	7.095763e-02	
1923	1.706500e-06	7.095763e-02	
1924	1.707500e-06	7.095763e-02	
1925	1.708500e-06	7.095763e-02	
1926	1.709500e-06	7.095763e-02	
1927	1.710500e-06	7.095763e-02	
1928	1.711500e-06	7.095763e-02	
1929	1.712500e-06	7.095763e-02	
1930	1.713500e-06	7.095763e-02	
1931	1.714500e-06	7.095763e-02	
1932	1.715500e-06	7.095763e-02	
1933	1.716500e-06	7.095763e-02	
1934	1.717500e-06	7.095763e-02	
1935	1.718500e-06	7.095763e-02	
1936	1.719500e-06	7.095763e-02	
1937	1.720500e-06	7.095763e-02	
1938	1.721500e-06	7.095763e-02	
1939	1.722500e-06	7.095763e-02	
1940	1.723500e-06	7.095763e-02	
1941	1.724500e-06	7.095763e-02	
1942	1.725500e-06	7.095763e-02	
1943	1.726500e-06	7.095763e-02	
1944	1.727500e-06	7.095763e-02	
1945	1.728500e-06	7.095763e-02	
1946	1.729500e-06	7.095763e-02	
1947	1.730500e-06	7.095763e-02	
1948	1.731500e-06	7.095763e-02	
1949	1.732500e-06	7.095763e-02	
1950	1.733500e-06	7.095763e-02	
1951	1.734500e-06	7.095763e-02	
1952	1.735500e-06	7.095763e-02	
1953	1.736500e-06	7.095763e-02	
1954	1.737500e-06	7.095763e-02	
1955	1.738500e-06	7.095763e-02	
1956	1.739500e-06	7.095763e-02	
1957	1.740500e-06	7.095763e-02	
1958	1.741500e-06	7.095763e-02	
1959	1.742500e-06	7.095763e-02	
1960	1.743500e-06	7.095763e-02	
1961	1.744500e-06	7.095763e-02	
1962	1.745500e-06	7.095763e-02	
1963	1.746500e-06	7.095763e-02	
1964	1.747500e-06	7.095763e-02	
1965	1.748500e-06	7.095763e-02	
1966	1.749500e-06	7.095763e-02	
1967	1.750500e-06	7.095763e-02	
1968	1.751500e-06	7.095763e-02	

Index   time            v(flipflopdclrq 
--------------------------------------------------------------------------------
1969	1.752500e-06	7.095763e-02	
1970	1.753500e-06	7.095763e-02	
1971	1.754000e-06	7.095763e-02	
1972	1.754100e-06	7.095646e-02	
1973	1.754300e-06	7.095412e-02	
1974	1.754700e-06	7.095024e-02	
1975	1.755500e-06	9.282502e-02	
1976	1.756000e-06	9.275754e-02	
1977	1.756100e-06	9.275759e-02	
1978	1.756300e-06	9.275703e-02	
1979	1.756700e-06	9.275702e-02	
1980	1.757500e-06	9.275702e-02	
1981	1.758500e-06	9.275702e-02	
1982	1.759500e-06	9.275702e-02	
1983	1.760500e-06	9.275702e-02	
1984	1.761500e-06	9.275702e-02	
1985	1.762500e-06	9.275702e-02	
1986	1.763500e-06	9.275702e-02	
1987	1.764500e-06	9.275702e-02	
1988	1.765500e-06	9.275702e-02	
1989	1.766500e-06	9.275702e-02	
1990	1.767500e-06	9.275702e-02	
1991	1.768500e-06	9.275702e-02	
1992	1.769500e-06	9.275702e-02	
1993	1.770500e-06	9.275702e-02	
1994	1.771500e-06	9.275702e-02	
1995	1.772500e-06	9.275702e-02	
1996	1.773500e-06	9.275702e-02	
1997	1.774500e-06	9.275702e-02	
1998	1.775500e-06	9.275702e-02	
1999	1.776500e-06	9.275702e-02	
2000	1.777500e-06	9.275702e-02	
2001	1.778500e-06	9.275702e-02	
2002	1.779500e-06	9.275702e-02	
2003	1.780500e-06	9.275702e-02	
2004	1.781500e-06	9.275702e-02	
2005	1.782500e-06	9.275702e-02	
2006	1.783500e-06	9.275702e-02	
2007	1.784500e-06	9.275702e-02	
2008	1.785500e-06	9.275702e-02	
2009	1.786500e-06	9.275702e-02	
2010	1.787500e-06	9.275702e-02	
2011	1.788500e-06	9.275702e-02	
2012	1.789500e-06	9.275702e-02	
2013	1.790500e-06	9.275702e-02	
2014	1.791500e-06	9.275702e-02	
2015	1.792500e-06	9.275702e-02	
2016	1.793500e-06	9.275702e-02	
2017	1.794500e-06	9.275702e-02	
2018	1.795500e-06	9.275702e-02	
2019	1.796500e-06	9.275702e-02	
2020	1.797500e-06	9.275702e-02	
2021	1.798500e-06	9.275702e-02	
2022	1.799500e-06	9.275702e-02	
2023	1.800500e-06	9.275702e-02	
2024	1.801500e-06	9.275702e-02	
2025	1.802000e-06	9.275702e-02	
2026	1.802100e-06	9.277308e-02	

Index   time            v(flipflopdclrq 
--------------------------------------------------------------------------------
2027	1.802300e-06	9.280132e-02	
2028	1.802700e-06	9.283049e-02	
2029	1.803500e-06	7.095194e-02	
2030	1.804000e-06	7.095763e-02	
2031	1.804100e-06	7.095763e-02	
2032	1.804300e-06	7.095763e-02	
2033	1.804700e-06	7.095763e-02	
2034	1.805500e-06	7.095763e-02	
2035	1.806500e-06	7.095763e-02	
2036	1.807500e-06	7.095763e-02	
2037	1.808500e-06	7.095763e-02	
2038	1.809500e-06	7.095763e-02	
2039	1.810500e-06	7.095763e-02	
2040	1.811500e-06	7.095763e-02	
2041	1.812500e-06	7.095763e-02	
2042	1.813500e-06	7.095763e-02	
2043	1.814500e-06	7.095763e-02	
2044	1.815500e-06	7.095763e-02	
2045	1.816500e-06	7.095763e-02	
2046	1.817500e-06	7.095763e-02	
2047	1.818500e-06	7.095763e-02	
2048	1.819500e-06	7.095763e-02	
2049	1.820500e-06	7.095763e-02	
2050	1.821500e-06	7.095763e-02	
2051	1.822500e-06	7.095763e-02	
2052	1.823500e-06	7.095763e-02	
2053	1.824500e-06	7.095763e-02	
2054	1.825500e-06	7.095763e-02	
2055	1.826500e-06	7.095763e-02	
2056	1.827500e-06	7.095763e-02	
2057	1.828500e-06	7.095763e-02	
2058	1.829500e-06	7.095763e-02	
2059	1.830500e-06	7.095763e-02	
2060	1.831500e-06	7.095763e-02	
2061	1.832500e-06	7.095763e-02	
2062	1.833500e-06	7.095763e-02	
2063	1.834500e-06	7.095763e-02	
2064	1.835500e-06	7.095763e-02	
2065	1.836500e-06	7.095763e-02	
2066	1.837500e-06	7.095763e-02	
2067	1.838500e-06	7.095763e-02	
2068	1.839500e-06	7.095763e-02	
2069	1.840500e-06	7.095763e-02	
2070	1.841500e-06	7.095763e-02	
2071	1.842500e-06	7.095763e-02	
2072	1.843500e-06	7.095763e-02	
2073	1.844500e-06	7.095763e-02	
2074	1.845500e-06	7.095763e-02	
2075	1.846500e-06	7.095763e-02	
2076	1.847500e-06	7.095763e-02	
2077	1.848500e-06	7.095763e-02	
2078	1.849500e-06	7.095763e-02	
2079	1.850500e-06	7.095763e-02	
2080	1.851500e-06	7.095763e-02	
2081	1.852500e-06	7.095763e-02	
2082	1.853500e-06	7.095763e-02	
2083	1.854000e-06	7.095763e-02	
2084	1.854100e-06	7.095646e-02	

Index   time            v(flipflopdclrq 
--------------------------------------------------------------------------------
2085	1.854300e-06	7.095412e-02	
2086	1.854700e-06	7.095024e-02	
2087	1.855500e-06	9.282502e-02	
2088	1.856000e-06	9.275754e-02	
2089	1.856100e-06	9.275759e-02	
2090	1.856300e-06	9.275703e-02	
2091	1.856700e-06	9.275702e-02	
2092	1.857500e-06	9.275702e-02	
2093	1.858500e-06	9.275702e-02	
2094	1.859500e-06	9.275702e-02	
2095	1.860500e-06	9.275702e-02	
2096	1.861500e-06	9.275702e-02	
2097	1.862500e-06	9.275702e-02	
2098	1.863500e-06	9.275702e-02	
2099	1.864500e-06	9.275702e-02	
2100	1.865500e-06	9.275702e-02	
2101	1.866500e-06	9.275702e-02	
2102	1.867500e-06	9.275702e-02	
2103	1.868500e-06	9.275702e-02	
2104	1.869500e-06	9.275702e-02	
2105	1.870500e-06	9.275702e-02	
2106	1.871500e-06	9.275702e-02	
2107	1.872500e-06	9.275702e-02	
2108	1.873500e-06	9.275702e-02	
2109	1.874500e-06	9.275702e-02	
2110	1.875500e-06	9.275702e-02	
2111	1.876500e-06	9.275702e-02	
2112	1.877500e-06	9.275702e-02	
2113	1.878500e-06	9.275702e-02	
2114	1.879500e-06	9.275702e-02	
2115	1.880500e-06	9.275702e-02	
2116	1.881500e-06	9.275702e-02	
2117	1.882500e-06	9.275702e-02	
2118	1.883500e-06	9.275702e-02	
2119	1.884500e-06	9.275702e-02	
2120	1.885500e-06	9.275702e-02	
2121	1.886500e-06	9.275702e-02	
2122	1.887500e-06	9.275702e-02	
2123	1.888500e-06	9.275702e-02	
2124	1.889500e-06	9.275702e-02	
2125	1.890500e-06	9.275702e-02	
2126	1.891500e-06	9.275702e-02	
2127	1.892500e-06	9.275702e-02	
2128	1.893500e-06	9.275702e-02	
2129	1.894500e-06	9.275702e-02	
2130	1.895500e-06	9.275702e-02	
2131	1.896500e-06	9.275702e-02	
2132	1.897500e-06	9.275702e-02	
2133	1.898500e-06	9.275702e-02	
2134	1.899500e-06	9.275702e-02	
2135	1.900500e-06	9.275702e-02	
2136	1.901500e-06	9.275702e-02	
2137	1.902000e-06	9.275702e-02	
2138	1.902100e-06	9.277308e-02	
2139	1.902300e-06	9.280132e-02	
2140	1.902700e-06	9.283049e-02	
2141	1.903500e-06	7.095194e-02	
2142	1.904000e-06	7.095763e-02	

Index   time            v(flipflopdclrq 
--------------------------------------------------------------------------------
2143	1.904100e-06	7.095763e-02	
2144	1.904300e-06	7.095763e-02	
2145	1.904700e-06	7.095763e-02	
2146	1.905500e-06	7.095763e-02	
2147	1.906500e-06	7.095763e-02	
2148	1.907500e-06	7.095763e-02	
2149	1.908500e-06	7.095763e-02	
2150	1.909500e-06	7.095763e-02	
2151	1.910500e-06	7.095763e-02	
2152	1.911500e-06	7.095763e-02	
2153	1.912500e-06	7.095763e-02	
2154	1.913500e-06	7.095763e-02	
2155	1.914500e-06	7.095763e-02	
2156	1.915500e-06	7.095763e-02	
2157	1.916500e-06	7.095763e-02	
2158	1.917500e-06	7.095763e-02	
2159	1.918500e-06	7.095763e-02	
2160	1.919500e-06	7.095763e-02	
2161	1.920500e-06	7.095763e-02	
2162	1.921500e-06	7.095763e-02	
2163	1.922500e-06	7.095763e-02	
2164	1.923500e-06	7.095763e-02	
2165	1.924500e-06	7.095763e-02	
2166	1.925500e-06	7.095763e-02	
2167	1.926500e-06	7.095763e-02	
2168	1.927500e-06	7.095763e-02	
2169	1.928500e-06	7.095763e-02	
2170	1.929500e-06	7.095763e-02	
2171	1.930500e-06	7.095763e-02	
2172	1.931500e-06	7.095763e-02	
2173	1.932500e-06	7.095763e-02	
2174	1.933500e-06	7.095763e-02	
2175	1.934500e-06	7.095763e-02	
2176	1.935500e-06	7.095763e-02	
2177	1.936500e-06	7.095763e-02	
2178	1.937500e-06	7.095763e-02	
2179	1.938500e-06	7.095763e-02	
2180	1.939500e-06	7.095763e-02	
2181	1.940500e-06	7.095763e-02	
2182	1.941500e-06	7.095763e-02	
2183	1.942500e-06	7.095763e-02	
2184	1.943500e-06	7.095763e-02	
2185	1.944500e-06	7.095763e-02	
2186	1.945500e-06	7.095763e-02	
2187	1.946500e-06	7.095763e-02	
2188	1.947500e-06	7.095763e-02	
2189	1.948500e-06	7.095763e-02	
2190	1.949500e-06	7.095763e-02	
2191	1.950500e-06	7.095763e-02	
2192	1.951500e-06	7.095763e-02	
2193	1.952500e-06	7.095763e-02	
2194	1.953500e-06	7.095763e-02	
2195	1.954000e-06	7.095763e-02	
2196	1.954100e-06	7.095646e-02	
2197	1.954300e-06	7.095412e-02	
2198	1.954700e-06	7.095024e-02	
2199	1.955500e-06	9.282502e-02	
2200	1.956000e-06	9.275754e-02	

Index   time            v(flipflopdclrq 
--------------------------------------------------------------------------------
2201	1.956100e-06	9.275759e-02	
2202	1.956300e-06	9.275703e-02	
2203	1.956700e-06	9.275702e-02	
2204	1.957500e-06	9.275702e-02	
2205	1.958500e-06	9.275702e-02	
2206	1.959500e-06	9.275702e-02	
2207	1.960500e-06	9.275702e-02	
2208	1.961500e-06	9.275702e-02	
2209	1.962500e-06	9.275702e-02	
2210	1.963500e-06	9.275702e-02	
2211	1.964500e-06	9.275702e-02	
2212	1.965500e-06	9.275702e-02	
2213	1.966500e-06	9.275702e-02	
2214	1.967500e-06	9.275702e-02	
2215	1.968500e-06	9.275702e-02	
2216	1.969500e-06	9.275702e-02	
2217	1.970500e-06	9.275702e-02	
2218	1.971500e-06	9.275702e-02	
2219	1.972500e-06	9.275702e-02	
2220	1.973500e-06	9.275702e-02	
2221	1.974500e-06	9.275702e-02	
2222	1.975500e-06	9.275702e-02	
2223	1.976500e-06	9.275702e-02	
2224	1.977500e-06	9.275702e-02	
2225	1.978500e-06	9.275702e-02	
2226	1.979500e-06	9.275702e-02	
2227	1.980500e-06	9.275702e-02	
2228	1.981500e-06	9.275702e-02	
2229	1.982500e-06	9.275702e-02	
2230	1.983500e-06	9.275702e-02	
2231	1.984500e-06	9.275702e-02	
2232	1.985500e-06	9.275702e-02	
2233	1.986500e-06	9.275702e-02	
2234	1.987500e-06	9.275702e-02	
2235	1.988500e-06	9.275702e-02	
2236	1.989500e-06	9.275702e-02	
2237	1.990500e-06	9.275702e-02	
2238	1.991500e-06	9.275702e-02	
2239	1.992500e-06	9.275702e-02	
2240	1.993500e-06	9.275702e-02	
2241	1.994500e-06	9.275702e-02	
2242	1.995500e-06	9.275702e-02	
2243	1.996500e-06	9.275702e-02	
2244	1.997500e-06	9.275702e-02	
2245	1.998500e-06	9.275702e-02	
2246	1.999500e-06	9.275702e-02	
2247	2.000000e-06	9.275702e-02	


Total analysis time (seconds) = 0.066436

Total CPU time (seconds) = 0.110 

Current dynamic memory usage = 0 bytes,
Dynamic memory limit = 8796093018012.777 MB.

